pglib_opf_case7336_epigrids/pglib_opf_case7336_epigrids_10regions.m
% -------------------------------------------------------------------------
% Partitioned MATPOWER Case File
% Copyright (c) 2025 Milad Hasanzadeh
% Generated on: 2026-05-21
% This file contains partitioned data for 10 regions


% -------------------- mpc_regionR1 --------------------

mpc_regionR1.version = '2';
mpc_regionR1.baseMVA = 100.0000;
mpc_regionR1.bus = [
%	bus_i       type        Pd          Qd          Gs          Bs          area        Vm          Va          baseKV      zone        Vmax        Vmin        
	 1	 2	 0	 0	 0	 0	 34	 1	 0	 345	 1	 1.1	 0.9;
	 2	 2	 0	 0	 0	 0	 34	 1	 0	 138	 1	 1.1	 0.9;
	 3	 1	 0	 0	 0	 0	 34	 1	 0	 138	 1	 1.1	 0.9;
	 4	 1	 2.52	 0.59	 0	 0	 34	 1	 0	 69	 1	 1.1	 0.9;
	 5	 1	 14.22	-6.21	 0	 0	 34	 1	 0	 69	 1	 1.1	 0.9;
	 6	 1	 10.38	 0	 0	 0	 34	 1	 0	 69	 1	 1.1	 0.9;
	 7	 1	 0	 0	 0	 0	 34	 1	 0	 138	 1	 1.1	 0.9;
	 8	 1	 5.73	 0	 0	 0	 34	 1	 0	 69	 1	 1.1	 0.9;
	 9	 1	 3.81	 0	 0	 0	 34	 1	 0	 69	 1	 1.1	 0.9;
	 10	 1	 3.82	 0	 0	 0	 34	 1	 0	 69	 1	 1.1	 0.9;
	 11	 1	 8.21	 0	 0	 0	 34	 1	 0	 69	 1	 1.1	 0.9;
	 12	 1	 3.56	 0	 0	 0	 34	 1	 0	 69	 1	 1.1	 0.9;
	 13	 1	 4.54	 0	 0	 0	 34	 1	 0	 69	 1	 1.1	 0.9;
	 14	 1	 0	 0	 0	 0	 34	 1	 0	 138	 1	 1.1	 0.9;
	 15	 1	 0	 0	 0	 0	 34	 1	 0	 138	 1	 1.1	 0.9;
	 16	 1	 6.4	 0	 0	 0	 34	 1	 0	 138	 1	 1.1	 0.9;
	 17	 1	 4.7	 0	 0	 0	 34	 1	 0	 69	 1	 1.1	 0.9;
	 18	 1	 6.79	 0	 0	 0	 34	 1	 0	 69	 1	 1.1	 0.9;
	 19	 1	 0	 0	 0	 0	 34	 1	 0	 138	 1	 1.1	 0.9;
	 20	 1	 7.72	 0	 0	 0	 34	 1	 0	 138	 1	 1.1	 0.9;
	 21	 1	 0	 0	 0	 0	 34	 1	 0	 138	 1	 1.1	 0.9;
	 22	 1	 4	 0	 0	 0	 34	 1	 0	 138	 1	 1.1	 0.9;
	 23	 1	 0	 0	 0	 0	 34	 1	 0	 138	 1	 1.1	 0.9;
	 24	 1	 6.5	 0	 0	 0	 34	 1	 0	 69	 1	 1.1	 0.9;
	 25	 1	 8.52	 0	 0	 0	 34	 1	 0	 69	 1	 1.1	 0.9;
	 26	 1	 0	 0	 0	 0	 34	 1	 0	 138	 1	 1.1	 0.9;
	 27	 1	 3.52	 0	 0	 0	 34	 1	 0	 69	 1	 1.1	 0.9;
	 28	 1	 3.8	 0	 0	 0	 34	 1	 0	 69	 1	 1.1	 0.9;
	 29	 1	 12.51	 0	 0	 0	 34	 1	 0	 69	 1	 1.1	 0.9;
	 30	 1	 0	 0	 0	 0	 34	 1	 0	 138	 1	 1.1	 0.9;
	 31	 1	 4.99	 0	 0	 0	 34	 1	 0	 138	 1	 1.1	 0.9;
	 32	 1	 0	 0	 0	 0	 34	 1	 0	 138	 1	 1.1	 0.9;
	 33	 1	 5.42	 0	 0	 0	 34	 1	 0	 69	 1	 1.1	 0.9;
	 34	 1	 4.78	 0	 0	 0	 34	 1	 0	 69	 1	 1.1	 0.9;
	 35	 1	 10.63	 0	 0	 0	 34	 1	 0	 69	 1	 1.1	 0.9;
	 36	 1	 6.27	 0	 0	 0	 34	 1	 0	 69	 1	 1.1	 0.9;
	 37	 1	 5.23	 0	 0	 0	 34	 1	 0	 69	 1	 1.1	 0.9;
	 38	 1	 7.26	 0	 0	 0	 34	 1	 0	 69	 1	 1.1	 0.9;
	 39	 1	 5.12	 0	 0	 0	 34	 1	 0	 69	 1	 1.1	 0.9;
	 40	 1	 9.12	 0	 0	 0	 34	 1	 0	 69	 1	 1.1	 0.9;
	 41	 1	 4.21	 0	 0	 0	 34	 1	 0	 69	 1	 1.1	 0.9;
	 42	 1	 10.26	 0	 0	 0	 34	 1	 0	 69	 1	 1.1	 0.9;
	 43	 1	 20.32	 0	 0	 0	 34	 1	 0	 69	 1	 1.1	 0.9;
	 44	 1	 6.81	 0	 0	 0	 34	 1	 0	 69	 1	 1.1	 0.9;
	 45	 1	 13.79	 0	 0	 0	 34	 1	 0	 69	 1	 1.1	 0.9;
	 46	 1	 5.8	 0	 0	 0	 34	 1	 0	 69	 1	 1.1	 0.9;
	 47	 1	 4.53	 0	 0	 0	 34	 1	 0	 69	 1	 1.1	 0.9;
	 48	 1	 1.69	 0	 0	 0	 34	 1	 0	 69	 1	 1.1	 0.9;
	 49	 1	 6.44	 0	 0	 0	 34	 1	 0	 69	 1	 1.1	 0.9;
	 50	 1	 5.65	 0	 0	 0	 34	 1	 0	 69	 1	 1.1	 0.9;
	 51	 1	 12.03	 0	 0	 0	 34	 1	 0	 69	 1	 1.1	 0.9;
	 52	 1	 7.01	 0	 0	 0	 34	 1	 0	 69	 1	 1.1	 0.9;
	 53	 1	 6.82	 0	 0	 0	 34	 1	 0	 69	 1	 1.1	 0.9;
	 54	 1	 5.14	 0	 0	 0	 34	 1	 0	 69	 1	 1.1	 0.9;
	 55	 1	 7.25	 0	 0	 0	 34	 1	 0	 69	 1	 1.1	 0.9;
	 56	 1	 8.35	 0	 0	 0	 34	 1	 0	 69	 1	 1.1	 0.9;
	 57	 1	 11.16	 0	 0	 0	 34	 1	 0	 69	 1	 1.1	 0.9;
	 58	 1	 11.51	 0	 0	 0	 34	 1	 0	 69	 1	 1.1	 0.9;
	 59	 1	 0	 0	 0	 0	 34	 1	 0	 138	 1	 1.1	 0.9;
	 60	 1	 5.14	 0	 0	 0	 34	 1	 0	 69	 1	 1.1	 0.9;
	 61	 1	 5.92	 0	 0	 0	 34	 1	 0	 69	 1	 1.1	 0.9;
	 62	 1	 10.52	 0	 0	 0	 34	 1	 0	 69	 1	 1.1	 0.9;
	 63	 1	 7.85	 0	 0	 0	 34	 1	 0	 69	 1	 1.1	 0.9;
	 64	 1	 0	 0	 0	 0	 34	 1	 0	 345	 1	 1.1	 0.9;
	 65	 1	 0	 0	 0	 0	 34	 1	 0	 138	 1	 1.1	 0.9;
	 66	 1	 17.93	 0	 0	 0	 34	 1	 0	 69	 1	 1.1	 0.9;
	 67	 1	 0	 0	 0	 300	 34	 1	 0	 345	 1	 1.1	 0.9;
	 68	 1	 6.2	 0	 0	 0	 34	 1	 0	 69	 1	 1.1	 0.9;
	 69	 1	 6.34	 0	 0	 0	 34	 1	 0	 69	 1	 1.1	 0.9;
	 70	 1	 3.67	 0	 0	 0	 34	 1	 0	 69	 1	 1.1	 0.9;
	 71	 1	 0	 0	 0	 0	 34	 1	 0	 138	 1	 1.1	 0.9;
	 72	 1	 5.48	 0	 0	 0	 34	 1	 0	 69	 1	 1.1	 0.9;
	 73	 1	 7.56	 0	 0	 0	 34	 1	 0	 138	 1	 1.1	 0.9;
	 74	 1	 4.88	 0	 0	 0	 34	 1	 0	 138	 1	 1.1	 0.9;
	 75	 1	 4.55	 0	 0	 0	 34	 1	 0	 138	 1	 1.1	 0.9;
	 76	 1	 8.92	 0	 0	 0	 34	 1	 0	 69	 1	 1.1	 0.9;
	 77	 1	 3.16	 0	 0	 0	 34	 1	 0	 69	 1	 1.1	 0.9;
	 78	 1	 9.51	 0	 0	 0	 34	 1	 0	 69	 1	 1.1	 0.9;
	 79	 1	 49.72	 0	 0	 0	 34	 1	 0	 138	 1	 1.1	 0.9;
	 80	 1	 10.74	 0	 0	 0	 34	 1	 0	 69	 1	 1.1	 0.9;
	 81	 1	 12.11	 0	 0	 0	 34	 1	 0	 69	 1	 1.1	 0.9;
	 82	 1	 0	 0	 0	 0	 34	 1	 0	 138	 1	 1.1	 0.9;
	 83	 1	 0	 0	 0	 0	 34	 1	 0	 138	 1	 1.1	 0.9;
	 84	 1	 4.42	 0	 0	 0	 34	 1	 0	 69	 1	 1.1	 0.9;
	 85	 1	 7.88	 0	 0	 0	 34	 1	 0	 69	 1	 1.1	 0.9;
	 86	 1	 1.44	 0	 0	 0	 34	 1	 0	 69	 1	 1.1	 0.9;
	 87	 1	 6.31	 0	 0	 0	 34	 1	 0	 69	 1	 1.1	 0.9;
	 88	 1	 7.56	 0	 0	 0	 34	 1	 0	 69	 1	 1.1	 0.9;
	 89	 1	 7.22	 0	 0	 0	 34	 1	 0	 69	 1	 1.1	 0.9;
	 90	 1	 8.49	 0	 0	 0	 34	 1	 0	 69	 1	 1.1	 0.9;
	 91	 1	 25.47	 0	 0	 0	 34	 1	 0	 69	 1	 1.1	 0.9;
	 92	 1	 0	 0	 0	 0	 34	 1	 0	 138	 1	 1.1	 0.9;
	 93	 1	 5.06	 0	 0	 0	 34	 1	 0	 69	 1	 1.1	 0.9;
	 94	 1	 0	 0	 0	 0	 34	 1	 0	 138	 1	 1.1	 0.9;
	 95	 1	 0	 0	 0	 0	 34	 1	 0	 138	 1	 1.1	 0.9;
	 96	 1	 9.41	 0	 0	 0	 34	 1	 0	 138	 1	 1.1	 0.9;
	 97	 1	 10.56	 0	 0	 0	 34	 1	 0	 69	 1	 1.1	 0.9;
	 98	 1	 7.56	 0	 0	 0	 34	 1	 0	 69	 1	 1.1	 0.9;
	 99	 1	 10.27	 0	 0	 0	 34	 1	 0	 69	 1	 1.1	 0.9;
	 100	 1	 0	 0	 0	 0	 34	 1	 0	 138	 1	 1.1	 0.9;
	 101	 1	 5.06	 0	 0	 0	 34	 1	 0	 138	 1	 1.1	 0.9;
	 102	 1	 60.03	 0	 0	 0	 34	 1	 0	 138	 1	 1.1	 0.9;
	 103	 1	 5.07	 0	 0	 0	 34	 1	 0	 69	 1	 1.1	 0.9;
	 104	 1	 2.52	 0	 0	 0	 34	 1	 0	 69	 1	 1.1	 0.9;
	 105	 1	 18.78	 0	 0	 0	 34	 1	 0	 69	 1	 1.1	 0.9;
	 106	 1	 29.41	 0	 0	 0	 34	 1	 0	 138	 1	 1.1	 0.9;
	 107	 1	 0	 0	 0	 0	 34	 1	 0	 138	 1	 1.1	 0.9;
	 108	 1	 3.23	 0	 0	 0	 34	 1	 0	 69	 1	 1.1	 0.9;
	 109	 1	 6.21	 0	 0	 0	 34	 1	 0	 69	 1	 1.1	 0.9;
	 110	 1	 5.67	 0	 0	 0	 34	 1	 0	 69	 1	 1.1	 0.9;
	 111	 1	 7.7	 0	 0	 0	 34	 1	 0	 69	 1	 1.1	 0.9;
	 112	 1	 24.9	 0	 0	 0	 34	 1	 0	 69	 1	 1.1	 0.9;
	 113	 1	 9.43	 0	 0	 0	 34	 1	 0	 69	 1	 1.1	 0.9;
	 114	 1	 6.63	 0	 0	 0	 34	 1	 0	 69	 1	 1.1	 0.9;
	 115	 1	 2.74	 0	 0	 0	 34	 1	 0	 69	 1	 1.1	 0.9;
	 116	 1	 16.06	 0	 0	 0	 34	 1	 0	 69	 1	 1.1	 0.9;
	 117	 1	 5.41	 0	 0	 0	 34	 1	 0	 69	 1	 1.1	 0.9;
	 118	 1	 38.93	 0	 0	 0	 34	 1	 0	 138	 1	 1.1	 0.9;
	 119	 1	 3.15	 0	 0	 0	 34	 1	 0	 69	 1	 1.1	 0.9;
	 120	 1	 3.44	 0	 0	 0	 34	 1	 0	 69	 1	 1.1	 0.9;
	 121	 1	 6.62	 0	 0	 0	 34	 1	 0	 69	 1	 1.1	 0.9;
	 122	 1	 6.91	 0	 0	 0	 34	 1	 0	 138	 1	 1.1	 0.9;
	 123	 1	 5.15	 0	 0	 0	 34	 1	 0	 69	 1	 1.1	 0.9;
	 124	 1	 5.03	 0	 0	 0	 34	 1	 0	 69	 1	 1.1	 0.9;
	 125	 1	 5.36	 0	 0	 0	 34	 1	 0	 69	 1	 1.1	 0.9;
	 126	 1	 2.64	 0	 0	 0	 34	 1	 0	 69	 1	 1.1	 0.9;
	 127	 1	 0	 0	 0	 0	 34	 1	 0	 138	 1	 1.1	 0.9;
	 128	 1	 4.86	 0	 0	 0	 34	 1	 0	 69	 1	 1.1	 0.9;
	 129	 1	 0	 0	 0	 0	 34	 1	 0	 138	 1	 1.1	 0.9;
	 130	 1	 8.61	 0	 0	 0	 34	 1	 0	 138	 1	 1.1	 0.9;
	 131	 1	 5.95	 0	 0	 0	 34	 1	 0	 69	 1	 1.1	 0.9;
	 132	 1	 3.85	 0	 0	 0	 34	 1	 0	 69	 1	 1.1	 0.9;
	 133	 1	 4.45	 0	 0	 0	 34	 1	 0	 69	 1	 1.1	 0.9;
	 134	 1	 5.63	 0	 0	 0	 34	 1	 0	 69	 1	 1.1	 0.9;
	 135	 1	 12.78	 0	 0	 0	 34	 1	 0	 138	 1	 1.1	 0.9;
	 136	 1	 12.32	 0	 0	 0	 34	 1	 0	 138	 1	 1.1	 0.9;
	 137	 1	 27.15	 0	 0	 0	 34	 1	 0	 69	 1	 1.1	 0.9;
	 138	 1	 4.71	 0	 0	 0	 34	 1	 0	 69	 1	 1.1	 0.9;
	 139	 1	 10.77	 0	 0	 0	 34	 1	 0	 69	 1	 1.1	 0.9;
	 140	 1	 3.94	 0	 0	 0	 34	 1	 0	 69	 1	 1.1	 0.9;
	 141	 1	 6.89	 0	 0	 0	 34	 1	 0	 138	 1	 1.1	 0.9;
	 142	 1	 6.99	 0	 0	 0	 34	 1	 0	 138	 1	 1.1	 0.9;
	 143	 1	 0	 0	 0	 0	 34	 1	 0	 345	 1	 1.1	 0.9;
	 144	 1	 58.32	 0	 0	 0	 34	 1	 0	 138	 1	 1.1	 0.9;
	 145	 1	 2.57	 0	 0	 0	 34	 1	 0	 69	 1	 1.1	 0.9;
	 146	 1	 0	 0	 0	 0	 34	 1	 0	 138	 1	 1.1	 0.9;
	 147	 1	 0	 0	 0	 0	 34	 1	 0	 345	 1	 1.1	 0.9;
	 148	 1	 7.42	 0	 0	 0	 34	 1	 0	 69	 1	 1.1	 0.9;
	 149	 1	 3.72	 0	 0	 0	 34	 1	 0	 69	 1	 1.1	 0.9;
	 150	 1	 8.21	 0	 0	 0	 34	 1	 0	 69	 1	 1.1	 0.9;
	 151	 1	 7.4	 0	 0	 0	 34	 1	 0	 69	 1	 1.1	 0.9;
	 152	 1	 7.31	 0	 0	 0	 34	 1	 0	 69	 1	 1.1	 0.9;
	 153	 1	 7.24	 0	 0	 0	 34	 1	 0	 69	 1	 1.1	 0.9;
	 154	 1	 9.55	 0	 0	 0	 34	 1	 0	 69	 1	 1.1	 0.9;
	 155	 1	 7.86	 0	 0	 0	 34	 1	 0	 69	 1	 1.1	 0.9;
	 156	 1	 5.01	 0	 0	 0	 34	 1	 0	 69	 1	 1.1	 0.9;
	 157	 1	 6.26	 0	 0	 0	 34	 1	 0	 69	 1	 1.1	 0.9;
	 158	 1	 0	 0	 0	 0	 34	 1	 0	 138	 1	 1.1	 0.9;
	 159	 1	 7.97	 0	 0	 0	 34	 1	 0	 69	 1	 1.1	 0.9;
	 160	 1	 6.38	 0	 0	 0	 34	 1	 0	 69	 1	 1.1	 0.9;
	 161	 1	 3.26	 0	 0	 0	 34	 1	 0	 69	 1	 1.1	 0.9;
	 162	 1	 2.14	 0	 0	 0	 34	 1	 0	 69	 1	 1.1	 0.9;
	 163	 1	 6.03	 0	 0	 0	 34	 1	 0	 69	 1	 1.1	 0.9;
	 164	 1	 4.27	 0	 0	 0	 34	 1	 0	 69	 1	 1.1	 0.9;
	 165	 1	 6.74	 0	 0	 0	 34	 1	 0	 69	 1	 1.1	 0.9;
	 166	 1	 35.39	 0	 0	 0	 34	 1	 0	 69	 1	 1.1	 0.9;
	 167	 1	 14.05	-6.39	 0	 0	 34	 1	 0	 69	 1	 1.1	 0.9;
	 168	 1	 3.32	 0.78	 0	 0	 34	 1	 0	 69	 1	 1.1	 0.9;
	 169	 1	 0.42	 0.2	 0	 0	 34	 1	 0	 69	 1	 1.1	 0.9;
	 170	 1	 5.28	 1.22	 0	 0	 34	 1	 0	 69	 1	 1.1	 0.9;
	 171	 1	 7.51	 3.2	 0	 0	 34	 1	 0	 69	 1	 1.1	 0.9;
	 172	 1	 4.78	 2.17	 0	 0	 34	 1	 0	 69	 1	 1.1	 0.9;
	 173	 1	 3.99	 1.81	 0	 0	 34	 1	 0	 69	 1	 1.1	 0.9;
	 174	 1	 4.38	 2.12	 0	 0	 34	 1	 0	 69	 1	 1.1	 0.9;
	 175	 1	 1.3	 0.3	 0	 0	 34	 1	 0	 69	 1	 1.1	 0.9;
	 176	 1	 15.45	 8.08	 0	 0	 34	 1	 0	 69	 1	 1.1	 0.9;
	 177	 1	 2.26	 1.15	 0	 0	 34	 1	 0	 69	 1	 1.1	 0.9;
	 178	 1	 5.36	 2.85	 0	 0	 34	 1	 0	 69	 1	 1.1	 0.9;
	 179	 1	 0	 0	 0	 0	 34	 1	 0	 69	 1	 1.1	 0.9;
	 180	 1	 0	 0	 0	 0	 34	 1	 0	 69	 1	 1.1	 0.9;
	 181	 2	 0	 0	 0	 0	 34	 1	 0	 69	 1	 1.1	 0.9;
	 182	 1	 5.82	 1.36	 0	 0	 34	 1	 0	 69	 1	 1.1	 0.9;
	 183	 1	 7.68	 0	 0	 0	 34	 1	 0	 69	 1	 1.1	 0.9;
	 184	 1	 19.04	 0	 0	 0	 34	 1	 0	 69	 1	 1.1	 0.9;
	 185	 1	 7.21	 0	 0	 0	 34	 1	 0	 69	 1	 1.1	 0.9;
	 186	 1	 9.68	 0	 0	 0	 34	 1	 0	 69	 1	 1.1	 0.9;
	 187	 1	 7.85	 0	 0	 0	 34	 1	 0	 69	 1	 1.1	 0.9;
	 188	 1	 5.27	 0	 0	 0	 34	 1	 0	 69	 1	 1.1	 0.9;
	 189	 1	 24.44	 0	 0	 0	 34	 1	 0	 69	 1	 1.1	 0.9;
	 190	 1	 7.95	 0	 0	 0	 34	 1	 0	 69	 1	 1.1	 0.9;
	 191	 1	 5.63	 0	 0	 0	 34	 1	 0	 69	 1	 1.1	 0.9;
	 192	 1	 16.54	 0	 0	 0	 34	 1	 0	 69	 1	 1.1	 0.9;
	 193	 1	 0	 0	 0	 0	 34	 1	 0	 138	 1	 1.1	 0.9;
	 194	 1	 36.86	 0	 0	 0	 34	 1	 0	 69	 1	 1.1	 0.9;
	 195	 1	 19.76	 0	 0	 0	 34	 1	 0	 69	 1	 1.1	 0.9;
	 196	 1	 268.48	 0	 0	 0	 34	 1	 0	 138	 1	 1.1	 0.9;
	 197	 1	 0	 0	 0	 0	 34	 1	 0	 69	 1	 1.1	 0.9;
	 198	 1	 8.2	 0	 0	 0	 34	 1	 0	 69	 1	 1.1	 0.9;
	 199	 1	 0	 0	 0	 0	 34	 1	 0	 69	 1	 1.1	 0.9;
	 200	 1	 22.63	 0	 0	 0	 34	 1	 0	 69	 1	 1.1	 0.9;
...
];

mpc_regionR1.gen = [
%	bus         Pg          Qg          Qmax        Qmin        Vg          mBase       status      Pmax        Pmin        Pc1         Pc2         Qc1min      Qc1max      Qc2min      Qc2max      ramp_agc    ramp_10     ramp_30     ramp_q      apf         
	 1	 108.95	 16.45	 71.2	-38.3	 1	 100	 1	 114.9	 103	 0	 0	 0	 0	 0	 0	 0	 0	 0	 0	 114.9;
	 1	 506.25	 40.45	 259.4	-178.5	 1	 100	 1	 535.5	 477	 0	 0	 0	 0	 0	 0	 0	 0	 0	 0	 535.5;
	 1	 74.7	 6.75	 43.3	-29.8	 1	 100	 1	 89.4	 60	 0	 0	 0	 0	 0	 0	 0	 0	 0	 0	 89.4;
	 1	 74.7	 6.75	 43.3	-29.8	 1	 100	 1	 89.4	 60	 0	 0	 0	 0	 0	 0	 0	 0	 0	 0	 89.4;
	 1	 74.7	 6.75	 43.3	-29.8	 1	 100	 1	 89.4	 60	 0	 0	 0	 0	 0	 0	 0	 0	 0	 0	 89.4;
	 1	 74.7	 6.75	 43.3	-29.8	 1	 100	 1	 89.4	 60	 0	 0	 0	 0	 0	 0	 0	 0	 0	 0	 89.4;
	 1	 74.7	 6.75	 43.3	-29.8	 1	 100	 1	 89.4	 60	 0	 0	 0	 0	 0	 0	 0	 0	 0	 0	 89.4;
	 2	 75.9	 17.45	 75.5	-40.6	 1	 100	 1	 121.8	 30	 0	 0	 0	 0	 0	 0	 0	 0	 0	 0	 121.8;
	 2	 54.8	 11.7	 50.6	-27.2	 1	 100	 1	 81.6	 28	 0	 0	 0	 0	 0	 0	 0	 0	 0	 0	 81.6;
	 2	 54.8	 11.7	 50.6	-27.2	 1	 100	 1	 81.6	 28	 0	 0	 0	 0	 0	 0	 0	 0	 0	 0	 81.6;
	 2	 57.5	 6.45	 41.2	-28.3	 1	 100	 1	 85	 30	 0	 0	 0	 0	 0	 0	 0	 0	 0	 0	 85;
	 2	 57.5	 6.45	 41.2	-28.3	 1	 100	 1	 85	 30	 0	 0	 0	 0	 0	 0	 0	 0	 0	 0	 85;
	 2	 72.5	 9.05	 58.1	-40	 1	 100	 1	 120	 25	 0	 0	 0	 0	 0	 0	 0	 0	 0	 0	 120;
	 2	 65.75	 12.4	 53.6	-28.8	 1	 100	 1	 86.5	 45	 0	 0	 0	 0	 0	 0	 0	 0	 0	 0	 86.5;
	 2	 65.75	 12.4	 53.6	-28.8	 1	 100	 1	 86.5	 45	 0	 0	 0	 0	 0	 0	 0	 0	 0	 0	 86.5;
	 181	 42.25	 6.1	 39	-26.8	 1	 100	 1	 80.5	 4	 0	 0	 0	 0	 0	 0	 0	 0	 0	 0	 80.5;
];

mpc_regionR1.branch = [
%	fbus        tbus        r           x           b           rateA       rateB       rateC       ratio       angle       status      angmin      angmax      
	 1	 67	 0.00914	 0.1338	 1.4353	 717	 717	 717	 0	 0	 1	-30	 30;
	 1	 179	 0.004748	 0.17093	 0	 100	 100	 100	 1	 0	 1	-30	 30;
	 1	 179	 0.004748	 0.17093	 0	 100	 100	 100	 1	 0	 1	-30	 30;
	 1	 218	 0.002357	 0.045551	 0.90024	 1000	 1000	 1000	 0	 0	 1	-30	 30;
	 1	 218	 0.002357	 0.045551	 0.90024	 1000	 1000	 1000	 0	 0	 1	-30	 30;
	 2	 14	 0.00241	 0.02554	 0.00758	 307	 322.4	 337.7	 0	 0	 1	-30	 30;
	 2	 102	 0.004556	 0.043746	 0.01273	 284	 298.2	 312.4	 0	 0	 1	-30	 30;
	 2	 106	 0.002734	 0.013964	 0.00351	 185	 194.2	 203.5	 0	 0	 1	-30	 30;
	 2	 107	 0.000464	 0.006542	 0.00224	 388	 407.4	 426.8	 0	 0	 1	-30	 30;
	 2	 118	 0.002561	 0.0282	 0.01443	 476	 499.8	 523.6	 0	 0	 1	-30	 30;
	 2	 180	 0.002136	 0.083306	 0	 150	 150	 150	 1	 0	 1	-30	 30;
	 2	 180	 0.002136	 0.083306	 0	 150	 150	 150	 1	 0	 1	-30	 30;
	 3	 82	 0.006344	 0.016469	 0.004	 118	 123.9	 129.8	 0	 0	 1	-30	 30;
	 3	 94	 0.001472	 0.009321	 0.00253	 219	 229.9	 240.9	 0	 0	 1	-30	 30;
	 3	 181	 0.00142	 0.062484	 0	 200	 200	 200	 1	 0	 1	-30	 30;
	 3	 181	 0.00142	 0.062484	 0	 200	 200	 200	 1	 0	 1	-30	 30;
	 3	 196	 0.000314	 0.003203	 0.00083	 284	 298.2	 312.4	 0	 0	 1	-30	 30;
	 182	 4	 0.029541	 0.023378	 0.00029	 24	 25.2	 26.4	 0	 0	 1	-30	 30;
	 5	 167	 0.5074	 0.877	 0.0133	 59	 59	 59	 0	 0	 1	-30	 30;
	 5	 171	 0.877	 1.27	 0.019	 42	 42	 42	 0	 0	 1	-30	 30;
	 6	 13	 0.002145	 0.019972	 0.00039	 141	 148	 155.1	 0	 0	 1	-30	 30;
	 6	 184	 0.004192	 0.025477	 0.00047	 110	 115.5	 121	 0	 0	 1	-30	 30;
	 6	 188	 0.006925	 0.025606	 0.00047	 80	 84	 88	 0	 0	 1	-30	 30;
	 6	 188	 0.006925	 0.025606	 0.00047	 80	 84	 88	 0	 0	 1	-30	 30;
	 7	 107	 0.002018	 0.010729	 0.00249	 185	 194.2	 203.5	 0	 0	 1	-30	 30;
	 7	 183	 0.003471	 0.12495	 0	 100	 100	 100	 1	 0	 1	-30	 30;
	 7	 183	 0.003471	 0.12495	 0	 100	 100	 100	 1	 0	 1	-30	 30;
	 8	 9	 0.018398	 0.014421	 0.00019	 24	 25.2	 26.4	 0	 0	 1	-30	 30;
	 8	 10	 0.003045	 0.010879	 0.00022	 80	 84	 88	 0	 0	 1	-30	 30;
	 8	 10	 0.003045	 0.010879	 0.00022	 80	 84	 88	 0	 0	 1	-30	 30;
	 183	 8	 0.005338	 0.01531	 0.00024	 64	 67.2	 70.4	 0	 0	 1	-30	 30;
	 8	 207	 0.010839	 0.034756	 0.00086	 80	 84	 88	 0	 0	 1	-30	 30;
	 8	 207	 0.010839	 0.034756	 0.00086	 80	 84	 88	 0	 0	 1	-30	 30;
	 10	 11	 0.002085	 0.007708	 0.00014	 80	 84	 88	 0	 0	 1	-30	 30;
	 10	 11	 0.002085	 0.007708	 0.00014	 80	 84	 88	 0	 0	 1	-30	 30;
	 11	 17	 0.004609	 0.016463	 0.00033	 80	 84	 88	 0	 0	 1	-30	 30;
	 11	 18	 0.019813	 0.032477	 0.00057	 39	 41	 42.9	 0	 0	 1	-30	 30;
	 183	 11	 0.00337	 0.02313	 0.00042	 115	 120.7	 126.5	 0	 0	 1	-30	 30;
	 11	 185	 0.004947	 0.015176	 0.00041	 80	 84	 88	 0	 0	 1	-30	 30;
	 11	 185	 0.004947	 0.015176	 0.00041	 80	 84	 88	 0	 0	 1	-30	 30;
	 12	 13	 0.011597	 0.009178	 0.00012	 24	 25.2	 26.4	 0	 0	 1	-30	 30;
	 183	 13	 0.001617	 0.015052	 0.00029	 141	 148	 155.1	 0	 0	 1	-30	 30;
	 14	 15	 0.000291	 0.002737	 0.00083	 284	 298.2	 312.4	 0	 0	 1	-30	 30;
	 14	 184	 0.003471	 0.12495	 0	 100	 100	 100	 1	 0	 1	-30	 30;
	 14	 184	 0.003471	 0.12495	 0	 100	 100	 100	 1	 0	 1	-30	 30;
	 15	 16	 0.000342	 0.003287	 0.00096	 284	 298.2	 312.4	 0	 0	 1	-30	 30;
	 15	 185	 0.002136	 0.083306	 0	 150	 150	 150	 1	 0	 1	-30	 30;
	 15	 185	 0.002136	 0.083306	 0	 150	 150	 150	 1	 0	 1	-30	 30;
	 16	 20	 0.000346	 0.003525	 0.00091	 284	 298.2	 312.4	 0	 0	 1	-30	 30;
	 184	 17	 0.004902	 0.016353	 0.00026	 71	 74.6	 78.1	 0	 0	 1	-30	 30;
	 19	 20	 0.000308	 0.002961	 0.00086	 284	 298.2	 312.4	 0	 0	 1	-30	 30;
	 19	 22	 0.001164	 0.003922	 0.00097	 142	 149.1	 156.2	 0	 0	 1	-30	 30;
	 19	 186	 0.003471	 0.12495	 0	 100	 100	 100	 1	 0	 1	-30	 30;
	 19	 186	 0.003471	 0.12495	 0	 100	 100	 100	 1	 0	 1	-30	 30;
	 19	 193	 0.002016	 0.020543	 0.00529	 284	 298.2	 312.4	 0	 0	 1	-30	 30;
	 21	 22	 0.00205	 0.007144	 0.00166	 142	 149.1	 156.2	 0	 0	 1	-30	 30;
	 21	 187	 0.003471	 0.12495	 0	 100	 100	 100	 1	 0	 1	-30	 30;
	 21	 187	 0.003471	 0.12495	 0	 100	 100	 100	 1	 0	 1	-30	 30;
	 22	 23	 0.000571	 0.002325	 0.00057	 159	 166.9	 174.9	 0	 0	 1	-30	 30;
	 23	 188	 0.003471	 0.12495	 0	 100	 100	 100	 1	 0	 1	-30	 30;
	 23	 188	 0.003471	 0.12495	 0	 100	 100	 100	 1	 0	 1	-30	 30;
	 24	 25	 0.004451	 0.017317	 0.00029	 80	 84	 88	 0	 0	 1	-30	 30;
	 24	 25	 0.004451	 0.017317	 0.00029	 80	 84	 88	 0	 0	 1	-30	 30;
	 24	 165	 0.002195	 0.008443	 0.00014	 80	 84	 88	 0	 0	 1	-30	 30;
	 24	 165	 0.002195	 0.008443	 0.00014	 80	 84	 88	 0	 0	 1	-30	 30;
	 25	 104	 0.007974	 0.030676	 0.00052	 80	 84	 88	 0	 0	 1	-30	 30;
	 25	 104	 0.007974	 0.030676	 0.00052	 80	 84	 88	 0	 0	 1	-30	 30;
	 25	 189	 0.002686	 0.020933	 0.00039	 125	 131.3	 137.5	 0	 0	 1	-30	 30;
	 26	 32	 0.002868	 0.011481	 0.00289	 159	 166.9	 174.9	 0	 0	 1	-30	 30;
	 26	 189	 0.001	 0.04999	 0	 250	 250	 250	 1	 0	 1	-30	 30;
	 26	 189	 0.001	 0.04999	 0	 250	 250	 250	 1	 0	 1	-30	 30;
	 26	 193	 0.001427	 0.015397	 0.00527	 325	 341.2	 357.5	 0	 0	 1	-30	 30;
	 27	 28	 0.015698	 0.011348	 0.00017	 24	 25.2	 26.4	 0	 0	 1	-30	 30;
	 28	 56	 0.007379	 0.01461	 0.00021	 41	 43.1	 45.1	 0	 0	 1	-30	 30;
	 29	 35	 0.00595	 0.012228	 0.00023	 57	 59.9	 62.7	 0	 0	 1	-30	 30;
	 29	 36	 0.007697	 0.019786	 0.00031	 59	 61.9	 64.9	 0	 0	 1	-30	 30;
	 29	 40	 0.007206	 0.014122	 0.00021	 41	 43.1	 45.1	 0	 0	 1	-30	 30;
	 29	 42	 0.012844	 0.033018	 0.00051	 59	 61.9	 64.9	 0	 0	 1	-30	 30;
	 189	 29	 0.009898	 0.052963	 0.00161	 115	 120.7	 126.5	 0	 0	 1	-30	 30;
	 30	 31	 0.001254	 0.005176	 0.00122	 159	 166.9	 174.9	 0	 0	 1	-30	 30;
	 30	 190	 0.003471	 0.12495	 0	 100	 100	 100	 1	 0	 1	-30	 30;
	 30	 190	 0.003471	 0.12495	 0	 100	 100	 100	 1	 0	 1	-30	 30;
	 31	 32	 0.001083	 0.004337	 0.00109	 159	 166.9	 174.9	 0	 0	 1	-30	 30;
	 32	 191	 0.00806	 0.24987	 0	 50	 50	 50	 1	 0	 1	-30	 30;
	 32	 191	 0.00806	 0.24987	 0	 50	 50	 50	 1	 0	 1	-30	 30;
	 191	 33	 0.017313	 0.015513	 0.00032	 30	 31.5	 33	 0	 0	 1	-30	 30;
	 34	 35	 0.014282	 0.013393	 0.00021	 28	 29.4	 30.8	 0	 0	 1	-30	 30;
	 190	 35	 0.009365	 0.021743	 0.00032	 57	 59.9	 62.7	 0	 0	 1	-30	 30;
	 191	 36	 0.009337	 0.024	 0.00037	 59	 61.9	 64.9	 0	 0	 1	-30	 30;
	 37	 43	 0.008713	 0.020229	 0.0003	 57	 59.9	 62.7	 0	 0	 1	-30	 30;
	 37	 44	 0.011993	 0.027844	 0.00041	 57	 59.9	 62.7	 0	 0	 1	-30	 30;
	 38	 39	 0.003802	 0.010904	 0.00017	 64	 67.2	 70.4	 0	 0	 1	-30	 30;
	 38	 41	 0.003857	 0.014467	 0.00026	 80	 84	 88	 0	 0	 1	-30	 30;
	 38	 42	 0.012388	 0.026036	 0.00047	 57	 59.9	 62.7	 0	 0	 1	-30	 30;
	 190	 39	 0.005861	 0.020506	 0.00042	 80	 84	 88	 0	 0	 1	-30	 30;
	 41	 116	 0.005093	 0.022438	 0.00039	 88	 92.4	 96.8	 0	 0	 1	-30	 30;
	 189	 43	 0.018943	 0.049095	 0.00093	 64	 67.2	 70.4	 0	 0	 1	-30	 30;
	 44	 45	 0.008138	 0.016654	 0.00041	 59	 61.9	 64.9	 0	 0	 1	-30	 30;
	 45	 46	 0.003509	 0.013163	 0.00024	 80	 84	 88	 0	 0	 1	-30	 30;
	 45	 192	 0.008267	 0.046994	 0.00085	 103	 108.2	 113.3	 0	 0	 1	-30	 30;
	 46	 47	 0.003284	 0.010954	 0.00017	 71	 74.6	 78.1	 0	 0	 1	-30	 30;
	 47	 48	 0.01218	 0.007885	 0.00015	 24	 25.2	 26.4	 0	 0	 1	-30	 30;
	 47	 49	 0.003589	 0.010184	 0.00016	 64	 67.2	 70.4	 0	 0	 1	-30	 30;
	 49	 51	 0.006196	 0.014672	 0.00027	 59	 61.9	 64.9	 0	 0	 1	-30	 30;
	 50	 51	 0.007744	 0.009441	 0.00015	 33	 34.7	 36.3	 0	 0	 1	-30	 30;
	 51	 52	 0.00924	 0.018295	 0.00027	 41	 43.1	 45.1	 0	 0	 1	-30	 30;
	 51	 53	 0.00567	 0.011112	 0.00017	 41	 43.1	 45.1	 0	 0	 1	-30	 30;
	 51	 192	 0.004064	 0.020432	 0.00056	 110	 115.5	 121	 0	 0	 1	-30	 30;
	 54	 55	 0.013718	 0.015088	 0.0002	 30	 31.5	 33	 0	 0	 1	-30	 30;
	 55	 57	 0.00431	 0.010962	 0.00017	 59	 61.9	 64.9	 0	 0	 1	-30	 30;
	 56	 62	 0.010352	 0.024514	 0.00045	 59	 61.9	 64.9	 0	 0	 1	-30	 30;
	 57	 192	 0.004767	 0.012254	 0.00019	 59	 61.9	 64.9	 0	 0	 1	-30	 30;
	 58	 192	 0.004789	 0.012311	 0.00019	 59	 61.9	 64.9	 0	 0	 1	-30	 30;
	 59	 192	 0.003471	 0.12495	 0	 100	 100	 100	 1	 0	 1	-30	 30;
	 59	 192	 0.003471	 0.12495	 0	 100	 100	 100	 1	 0	 1	-30	 30;
	 59	 193	 0.002216	 0.010168	 0.0026	 175	 183.7	 192.5	 0	 0	 1	-30	 30;
	 60	 61	 0.001729	 0.007663	 0.00023	 103	 108.2	 113.3	 0	 0	 1	-30	 30;
	 192	 60	 0.002323	 0.011207	 0.0002	 92	 96.6	 101.2	 0	 0	 1	-30	 30;
	 61	 69	 0.001338	 0.008229	 0.00015	 110	 115.5	 121	 0	 0	 1	-30	 30;
	 62	 69	 0.006279	 0.011675	 0.00027	 57	 59.9	 62.7	 0	 0	 1	-30	 30;
	 62	 194	 0.003913	 0.01724	 0.0003	 88	 92.4	 96.8	 0	 0	 1	-30	 30;
	 192	 63	 0.004084	 0.023213	 0.00042	 103	 108.2	 113.3	 0	 0	 1	-30	 30;
	 63	 194	 0.005428	 0.018108	 0.00029	 71	 74.6	 78.1	 0	 0	 1	-30	 30;
	 63	 195	 0.010026	 0.03857	 0.00066	 80	 84	 88	 0	 0	 1	-30	 30;
	 64	 67	 8.5e-05	 0.001341	 0.01397	 960	 1008	 1056	 0	 0	 1	-30	 30;
	 64	 193	 0.000219	 0.016443	 0	 900	 900	 900	 1	 0	 1	-30	 30;
	 193	 65	 0.000307	 0.004422	 0.00181	 418	 438.9	 459.8	 0	 0	 1	-30	 30;
	 65	 195	 0.002136	 0.083306	 0	 150	 150	 150	 1	 0	 1	-30	 30;
	 65	 195	 0.002136	 0.083306	 0	 150	 150	 150	 1	 0	 1	-30	 30;
	 65	 196	 0.000368	 0.00387	 0.00217	 476	 499.8	 523.6	 0	 0	 1	-30	 30;
	 195	 66	 0.002567	 0.015783	 0.00028	 110	 115.5	 121	 0	 0	 1	-30	 30;
	 66	 202	 0.00669	 0.024735	 0.00046	 80	 84	 88	 0	 0	 1	-30	 30;
	 67	 143	 0.000275	 0.003373	 0.05404	 1190	 1249.5	 1309	 0	 0	 1	-30	 30;
	 67	 196	 0.000109	 0.008705	 0	 1700	 1700	 1700	 1	 0	 1	-30	 30;
	 218	 67	 0.002424	 0.046862	 0.92671	 1000	 1000	 1000	 0	 0	 1	-30	 30;
	 218	 67	 0.002424	 0.046862	 0.92671	 1000	 1000	 1000	 0	 0	 1	-30	 30;
	 68	 87	 0.009559	 0.016103	 0.00023	 37	 38.9	 40.7	 0	 0	 1	-30	 30;
	 197	 69	 0.007872	 0.030284	 0.00052	 80	 84	 88	 0	 0	 1	-30	 30;
	 197	 69	 0.007872	 0.030284	 0.00052	 80	 84	 88	 0	 0	 1	-30	 30;
	 70	 198	 0.020517	 0.013283	 0.00025	 24	 25.2	 26.4	 0	 0	 1	-30	 30;
	 71	 73	 0.003452	 0.008962	 0.00218	 118	 123.9	 129.8	 0	 0	 1	-30	 30;
	 196	 71	 0.001321	 0.004451	 0.00111	 142	 149.1	 156.2	 0	 0	 1	-30	 30;
	 71	 198	 0.003471	 0.12495	 0	 100	 100	 100	 1	 0	 1	-30	 30;
	 71	 198	 0.003471	 0.12495	 0	 100	 100	 100	 1	 0	 1	-30	 30;
	 181	 72	 0.019873	 0.020292	 0.00032	 30	 31.5	 33	 0	 0	 1	-30	 30;
	 198	 72	 0.008694	 0.014519	 0.00025	 39	 41	 42.9	 0	 0	 1	-30	 30;
	 73	 74	 0.001558	 0.004119	 0.00096	 118	 123.9	 129.8	 0	 0	 1	-30	 30;
	 74	 75	 0.000948	 0.002506	 0.00059	 118	 123.9	 129.8	 0	 0	 1	-30	 30;
	 75	 83	 0.001507	 0.004045	 0.00092	 118	 123.9	 129.8	 0	 0	 1	-30	 30;
	 76	 78	 0.001281	 0.011193	 0.00028	 147	 154.3	 161.7	 0	 0	 1	-30	 30;
	 76	 201	 0.003102	 0.011081	 0.00022	 80	 84	 88	 0	 0	 1	-30	 30;
	 76	 201	 0.003102	 0.011081	 0.00022	 80	 84	 88	 0	 0	 1	-30	 30;
	 77	 81	 0.006535	 0.015997	 0.00027	 59	 61.9	 64.9	 0	 0	 1	-30	 30;
	 77	 199	 0.013043	 0.020819	 0.00048	 41	 43.1	 45.1	 0	 0	 1	-30	 30;
	 78	 81	 0.003195	 0.025572	 0.00052	 131	 137.5	 144.1	 0	 0	 1	-30	 30;
	 79	 158	 0.003088	 0.012364	 0.00311	 159	 166.9	 174.9	 0	 0	 1	-30	 30;
	 196	 79	 0.0035	 0.031016	 0.00826	 261	 274	 287.1	 0	 0	 1	-30	 30;
	 79	 199	 0.003471	 0.12495	 0	 100	 100	 100	 1	 0	 1	-30	 30;
	 79	 199	 0.003471	 0.12495	 0	 100	 100	 100	 1	 0	 1	-30	 30;
	 80	 151	 0.005275	 0.044802	 0.00105	 141	 148	 155.1	 0	 0	 1	-30	 30;
	 80	 200	 0.008792	 0.023302	 0.00059	 71	 74.6	 78.1	 0	 0	 1	-30	 30;
	 80	 212	 0.00574	 0.022084	 0.00038	 80	 84	 88	 0	 0	 1	-30	 30;
	 80	 212	 0.00574	 0.022084	 0.00038	 80	 84	 88	 0	 0	 1	-30	 30;
	 199	 81	 0.006724	 0.021652	 0.00037	 71	 74.6	 78.1	 0	 0	 1	-30	 30;
	 82	 200	 0.003471	 0.12495	 0	 100	 100	 100	 1	 0	 1	-30	 30;
	 82	 200	 0.003471	 0.12495	 0	 100	 100	 100	 1	 0	 1	-30	 30;
	 83	 201	 0.002136	 0.083306	 0	 150	 150	 150	 1	 0	 1	-30	 30;
	 83	 201	 0.002136	 0.083306	 0	 150	 150	 150	 1	 0	 1	-30	 30;
	 83	 211	 0.001803	 0.011084	 0.0032	 219	 229.9	 240.9	 0	 0	 1	-30	 30;
	 84	 85	 0.004697	 0.009299	 0.00014	 41	 43.1	 45.1	 0	 0	 1	-30	 30;
	 84	 87	 0.009693	 0.01274	 0.00017	 33	 34.7	 36.3	 0	 0	 1	-30	 30;
	 85	 86	 0.014068	 0.011027	 0.00014	 24	 25.2	 26.4	 0	 0	 1	-30	 30;
	 85	 91	 0.012558	 0.026912	 0.00047	 57	 59.9	 62.7	 0	 0	 1	-30	 30;
	 85	 203	 0.018759	 0.021989	 0.00038	 33	 34.7	 36.3	 0	 0	 1	-30	 30;
	 87	 88	 0.005758	 0.014644	 0.00023	 59	 61.9	 64.9	 0	 0	 1	-30	 30;
	 181	 88	 0.002532	 0.009851	 0.00016	 80	 84	 88	 0	 0	 1	-30	 30;
	 89	 93	 0.003287	 0.010848	 0.00018	 71	 74.6	 78.1	 0	 0	 1	-30	 30;
	 89	 98	 0.00358	 0.012525	 0.00026	 80	 84	 88	 0	 0	 1	-30	 30;
	 89	 121	 0.010834	 0.021233	 0.00032	 41	 43.1	 45.1	 0	 0	 1	-30	 30;
	 90	 125	 0.006328	 0.016728	 0.0003	 64	 67.2	 70.4	 0	 0	 1	-30	 30;
	 90	 204	 0.00365	 0.012469	 0.00027	 80	 84	 88	 0	 0	 1	-30	 30;
	 91	 97	 0.003	 0.010504	 0.00029	 88	 92.4	 96.8	 0	 0	 1	-30	 30;
	 200	 91	 0.009825	 0.02281	 0.00034	 57	 59.9	 62.7	 0	 0	 1	-30	 30;
	 92	 122	 0.003048	 0.007835	 0.00194	 118	 123.9	 129.8	 0	 0	 1	-30	 30;
	 92	 202	 0.003471	 0.12495	 0	 100	 100	 100	 1	 0	 1	-30	 30;
	 92	 202	 0.003471	 0.12495	 0	 100	 100	 100	 1	 0	 1	-30	 30;
	 93	 120	 0.024732	 0.019573	 0.00025	 24	 25.2	 26.4	 0	 0	 1	-30	 30;
	 202	 93	 0.006458	 0.008488	 0.00012	 33	 34.7	 36.3	 0	 0	 1	-30	 30;
	 94	 95	 0.000637	 0.00255	 0.00064	 159	 166.9	 174.9	 0	 0	 1	-30	 30;
	 94	 203	 0.003471	 0.12495	 0	 100	 100	 100	 1	 0	 1	-30	 30;
	 94	 203	 0.003471	 0.12495	 0	 100	 100	 100	 1	 0	 1	-30	 30;
	 95	 96	 0.002612	 0.007284	 0.00153	 118	 123.9	 129.8	 0	 0	 1	-30	 30;
	 95	 204	 0.00806	 0.24987	 0	 50	 50	 50	 1	 0	 1	-30	 30;
	 95	 204	 0.00806	 0.24987	 0	 50	 50	 50	 1	 0	 1	-30	 30;
	 96	 100	 0.001336	 0.003434	 0.00085	 118	 123.9	 129.8	 0	 0	 1	-30	 30;
	 97	 212	 0.003921	 0.024104	 0.00043	 110	 115.5	 121	 0	 0	 1	-30	 30;
	 98	 99	 0.013677	 0.013382	 0.00019	 28	 29.4	 30.8	 0	 0	 1	-30	 30;
	 181	 98	 0.003594	 0.015919	 0.00036	 95	 99.8	 104.5	 0	 0	 1	-30	 30;
	 203	 99	 0.0062	 0.013287	 0.00023	 57	 59.9	 62.7	 0	 0	 1	-30	 30;
	 100	 101	 0.000241	 0.001786	 0.00092	 381	 400.1	 419.1	 0	 0	 1	-30	 30;
...
];

mpc_regionR1.gencost = [
%	2           startup     shutdown    n           c(n-1)...c0 
	 2	 0	 0	 3	 0	 30.228991	 0;
	 2	 0	 0	 3	 0	 26.186772	 0;
	 2	 0	 0	 3	 0	 42.530055	 0;
	 2	 0	 0	 3	 0	 40.223781	 0;
	 2	 0	 0	 3	 0	 105.038748	 0;
	 2	 0	 0	 3	 0	 44.576523	 0;
	 2	 0	 0	 3	 0	 53.199499	 0;
	 2	 0	 0	 3	 0	 26.110932	 0;
	 2	 0	 0	 3	 0	 26.976038	 0;
	 2	 0	 0	 3	 0	 107.589599	 0;
	 2	 0	 0	 3	 0	 31.013311	 0;
	 2	 0	 0	 3	 0	 46.57989	 0;
	 2	 0	 0	 3	 0	 35.667246	 0;
	 2	 0	 0	 3	 0	 19.753057	 0;
	 2	 0	 0	 3	 0	 50.295683	 0;
	 2	 0	 0	 3	 0	 56.065486	 0;
];


% -------------------- mpc_regionR2 --------------------

mpc_regionR2.version = '2';
mpc_regionR2.baseMVA = 100.0000;
mpc_regionR2.bus = [
%	bus_i       type        Pd          Qd          Gs          Bs          area        Vm          Va          baseKV      zone        Vmax        Vmin        
	 1	 2	 0	 0	 0	 0	 34	 1	 0	 345	 1	 1.1	 0.9;
	 2	 2	 0	 0	 0	 0	 34	 1	 0	 345	 1	 1.1	 0.9;
	 3	 2	 0	 0	 0	 0	 34	 1	 0	 345	 1	 1.1	 0.9;
	 4	 2	 0	 0	 0	 0	 34	 1	 0	 69	 1	 1.1	 0.9;
	 5	 1	 0	 0	 0	 0	 34	 1	 0	 138	 1	 1.1	 0.9;
	 6	 1	 0	 0	 0	 0	 34	 1	 0	 138	 1	 1.1	 0.9;
	 7	 1	 2.22	 0.53	 0	 0	 34	 1	 0	 138	 1	 1.1	 0.9;
	 8	 1	 16.41	 3.95	 0	 0	 34	 1	 0	 138	 1	 1.1	 0.9;
	 9	 1	 4.51	 0	 0	 0	 34	 1	 0	 69	 1	 1.1	 0.9;
	 10	 1	 2.67	 0	 0	 0	 34	 1	 0	 69	 1	 1.1	 0.9;
	 11	 1	 0	 0	 0	 0	 34	 1	 0	 138	 1	 1.1	 0.9;
	 12	 1	 5.76	 1.33	 0	 0	 34	 1	 0	 69	 1	 1.1	 0.9;
	 13	 1	 0	 0	 0	 0	 34	 1	 0	 138	 1	 1.1	 0.9;
	 14	 1	 0	 0	 0	 0	 34	 1	 0	 138	 1	 1.1	 0.9;
	 15	 1	 12.27	 0	 0	 0	 34	 1	 0	 69	 1	 1.1	 0.9;
	 16	 1	 6.5	 0	 0	 0	 34	 1	 0	 69	 1	 1.1	 0.9;
	 17	 1	 4.52	 0	 0	 0	 34	 1	 0	 69	 1	 1.1	 0.9;
	 18	 1	 3.65	 0	 0	 0	 34	 1	 0	 69	 1	 1.1	 0.9;
	 19	 1	 0	 0	 0	 0	 34	 1	 0	 138	 1	 1.1	 0.9;
	 20	 1	 5.69	 0	 0	 0	 34	 1	 0	 69	 1	 1.1	 0.9;
	 21	 1	 5.8	 0	 0	 0	 34	 1	 0	 69	 1	 1.1	 0.9;
	 22	 1	 3.33	 0	 0	 0	 34	 1	 0	 69	 1	 1.1	 0.9;
	 23	 1	 1.78	 0	 0	 0	 34	 1	 0	 69	 1	 1.1	 0.9;
	 24	 1	 6.05	 0	 0	 0	 34	 1	 0	 69	 1	 1.1	 0.9;
	 25	 1	 2.37	 0	 0	 0	 34	 1	 0	 69	 1	 1.1	 0.9;
	 26	 1	 3.12	 0	 0	 0	 34	 1	 0	 69	 1	 1.1	 0.9;
	 27	 1	 4.83	 0	 0	 0	 34	 1	 0	 69	 1	 1.1	 0.9;
	 28	 1	 9.33	 0	 0	 0	 34	 1	 0	 69	 1	 1.1	 0.9;
	 29	 1	 7.98	 1.86	 0	 0	 34	 1	 0	 69	 1	 1.1	 0.9;
	 30	 1	 8.58	 1.99	 0	 0	 34	 1	 0	 69	 1	 1.1	 0.9;
	 31	 1	 6.26	 0	 0	 0	 34	 1	 0	 69	 1	 1.1	 0.9;
	 32	 1	 5.11	 0	 0	 0	 34	 1	 0	 69	 1	 1.1	 0.9;
	 33	 1	 5.81	 0	 0	 0	 34	 1	 0	 69	 1	 1.1	 0.9;
	 34	 1	 1.67	 0	 0	 0	 34	 1	 0	 69	 1	 1.1	 0.9;
	 35	 1	 2.12	 0	 0	 0	 34	 1	 0	 69	 1	 1.1	 0.9;
	 36	 1	 4.4	 0	 0	 0	 34	 1	 0	 69	 1	 1.1	 0.9;
	 37	 1	 3.15	 0	 0	 0	 34	 1	 0	 69	 1	 1.1	 0.9;
	 38	 1	 4.46	 0	 0	 0	 34	 1	 0	 69	 1	 1.1	 0.9;
	 39	 1	 8.74	 0	 0	 0	 34	 1	 0	 69	 1	 1.1	 0.9;
	 40	 1	 4.57	 0	 0	 0	 34	 1	 0	 69	 1	 1.1	 0.9;
	 41	 1	 6.45	 0	 0	 0	 34	 1	 0	 69	 1	 1.1	 0.9;
	 42	 1	 9.83	 0	 0	 0	 34	 1	 0	 69	 1	 1.1	 0.9;
	 43	 1	 3.7	 0.86	 0	 0	 34	 1	 0	 69	 1	 1.1	 0.9;
	 44	 1	 7.31	 1.7	 0	 0	 34	 1	 0	 69	 1	 1.1	 0.9;
	 45	 1	 3.2	 0	 0	 0	 34	 1	 0	 69	 1	 1.1	 0.9;
	 46	 1	 5.95	 0	 0	 0	 34	 1	 0	 69	 1	 1.1	 0.9;
	 47	 1	 5.59	 0	 0	 0	 34	 1	 0	 69	 1	 1.1	 0.9;
	 48	 1	 10.68	 2.49	 0	 0	 34	 1	 0	 69	 1	 1.1	 0.9;
	 49	 1	 0	 0	 0	 0	 34	 1	 0	 138	 1	 1.1	 0.9;
	 50	 1	 2.97	 0.7	 0	 0	 34	 1	 0	 69	 1	 1.1	 0.9;
	 51	 1	 7.55	 1.76	 0	 0	 34	 1	 0	 69	 1	 1.1	 0.9;
	 52	 1	 14.31	 3.38	 0	 0	 34	 1	 0	 69	 1	 1.1	 0.9;
	 53	 1	 9.49	 2.22	 0	 0	 34	 1	 0	 69	 1	 1.1	 0.9;
	 54	 1	 4.55	 1.07	 0	 0	 34	 1	 0	 69	 1	 1.1	 0.9;
	 55	 1	 6.57	 1.54	 0	 0	 34	 1	 0	 69	 1	 1.1	 0.9;
	 56	 1	 77.6	 18.47	 0	 0	 34	 1	 0	 138	 1	 1.1	 0.9;
	 57	 1	 0	 0	 0	 0	 34	 1	 0	 345	 1	 1.1	 0.9;
	 58	 1	 5.57	 1.33	 0	 0	 34	 1	 0	 69	 1	 1.1	 0.9;
	 59	 1	 6.1	 1.46	 0	 0	 34	 1	 0	 69	 1	 1.1	 0.9;
	 60	 1	 15.3	 3.64	 0	 0	 34	 1	 0	 69	 1	 1.1	 0.9;
	 61	 1	 0	 0	 0	 0	 34	 1	 0	 345	 1	 1.1	 0.9;
	 62	 1	 7.95	 1.96	 0	 0	 34	 1	 0	 69	 1	 1.1	 0.9;
	 63	 1	 9.58	 2.33	 0	 0	 34	 1	 0	 69	 1	 1.1	 0.9;
	 64	 1	 0	 0	 0	 0	 34	 1	 0	 345	 1	 1.1	 0.9;
	 65	 1	 0	 0	 0	 0	 34	 1	 0	 345	 1	 1.1	 0.9;
	 66	 1	 14.22	 3.45	 0	 0	 34	 1	 0	 69	 1	 1.1	 0.9;
	 67	 1	 7.16	 1.72	 0	 0	 34	 1	 0	 138	 1	 1.1	 0.9;
	 68	 1	 13.04	 3.14	 0	 0	 34	 1	 0	 138	 1	 1.1	 0.9;
	 69	 1	 2.89	 0.7	 0	 0	 34	 1	 0	 69	 1	 1.1	 0.9;
	 70	 1	 17.18	 4.12	 0	 0	 34	 1	 0	 69	 1	 1.1	 0.9;
	 71	 1	 0	 0	 0	 0	 34	 1	 0	 230	 1	 1.1	 0.9;
	 72	 1	 0	 0	 0	 0	 34	 1	 0	 230	 1	 1.1	 0.9;
	 73	 1	 18.28	 4.29	 0	 0	 34	 1	 0	 69	 1	 1.1	 0.9;
	 74	 1	 17.26	 4.06	 0	 0	 34	 1	 0	 69	 1	 1.1	 0.9;
	 75	 1	 0	 0	 0	 0	 34	 1	 0	 345	 1	 1.1	 0.9;
	 76	 1	 0	 0	 0	 0	 34	 1	 0	 345	 1	 1.1	 0.9;
	 77	 1	 9.45	 2.26	 0	 0	 34	 1	 0	 138	 1	 1.1	 0.9;
	 78	 1	 0	 0	 0	 0	 34	 1	 0	 345	 1	 1.1	 0.9;
	 79	 1	 5.16	 1.24	 0	 0	 34	 1	 0	 138	 1	 1.1	 0.9;
	 80	 1	 0	 0	 0	 0	 34	 1	 0	 345	 1	 1.1	 0.9;
	 81	 1	 11.68	 2.77	 0	 0	 34	 1	 0	 138	 1	 1.1	 0.9;
	 82	 1	 0	 0	 0	 0	 34	 1	 0	 345	 1	 1.1	 0.9;
	 83	 1	 5.34	 1.26	 0	 0	 34	 1	 0	 69	 1	 1.1	 0.9;
	 84	 1	 9.91	 2.36	 0	 0	 34	 1	 0	 69	 1	 1.1	 0.9;
	 85	 1	 8.28	 1.94	 0	 0	 34	 1	 0	 69	 1	 1.1	 0.9;
	 86	 1	 7.7	 0	 0	 0	 34	 1	 0	 69	 1	 1.1	 0.9;
	 87	 1	 7.07	 1.65	 0	 0	 34	 1	 0	 69	 1	 1.1	 0.9;
	 88	 1	 14.19	 0	 0	 0	 34	 1	 0	 69	 1	 1.1	 0.9;
	 89	 1	 12.37	 2.89	 0	 0	 34	 1	 0	 69	 1	 1.1	 0.9;
	 90	 1	 4.76	 1.11	 0	 0	 34	 1	 0	 69	 1	 1.1	 0.9;
	 91	 1	 7.3	 0	 0	 0	 34	 1	 0	 69	 1	 1.1	 0.9;
	 92	 1	 4.84	 0	 0	 0	 34	 1	 0	 69	 1	 1.1	 0.9;
	 93	 1	 2.35	 0	 0	 0	 34	 1	 0	 69	 1	 1.1	 0.9;
	 94	 1	 6.04	 1.41	 0	 0	 34	 1	 0	 69	 1	 1.1	 0.9;
	 95	 1	 4.26	 1	 0	 0	 34	 1	 0	 69	 1	 1.1	 0.9;
	 96	 1	 3.8	 0.89	 0	 0	 34	 1	 0	 69	 1	 1.1	 0.9;
	 97	 1	 0	 0	 0	 0	 34	 1	 0	 138	 1	 1.1	 0.9;
	 98	 1	 5.05	 1.19	 0	 0	 34	 1	 0	 138	 1	 1.1	 0.9;
	 99	 1	 0	 0	 0	 0	 34	 1	 0	 138	 1	 1.1	 0.9;
	 100	 1	 3.66	 0.85	 0	 0	 34	 1	 0	 69	 1	 1.1	 0.9;
	 101	 1	 3.27	 0.77	 0	 0	 34	 1	 0	 69	 1	 1.1	 0.9;
	 102	 1	 5.75	 1.35	 0	 0	 34	 1	 0	 69	 1	 1.1	 0.9;
	 103	 1	 8.53	 0	 0	 0	 34	 1	 0	 69	 1	 1.1	 0.9;
	 104	 1	 8.2	 0	 0	 0	 34	 1	 0	 69	 1	 1.1	 0.9;
	 105	 1	 0	 0	 0	 0	 34	 1	 0	 138	 1	 1.1	 0.9;
	 106	 1	 5.98	 0	 0	 0	 34	 1	 0	 69	 1	 1.1	 0.9;
	 107	 1	 0	 0	 0	 0	 34	 1	 0	 138	 1	 1.1	 0.9;
	 108	 1	 6.56	 1.55	 0	 0	 34	 1	 0	 138	 1	 1.1	 0.9;
	 109	 1	 4.58	 1.06	 0	 0	 34	 1	 0	 69	 1	 1.1	 0.9;
	 110	 1	 6.16	 1.44	 0	 0	 34	 1	 0	 69	 1	 1.1	 0.9;
	 111	 1	 3.81	 0	 0	 0	 34	 1	 0	 69	 1	 1.1	 0.9;
	 112	 1	 6.2	 0	 0	 0	 34	 1	 0	 69	 1	 1.1	 0.9;
	 113	 1	 3.67	 0	 0	 0	 34	 1	 0	 69	 1	 1.1	 0.9;
	 114	 1	 9.29	 0	 0	 0	 34	 1	 0	 69	 1	 1.1	 0.9;
	 115	 1	 0	 0	 0	 0	 34	 1	 0	 138	 1	 1.1	 0.9;
	 116	 1	 8.52	 0	 0	 0	 34	 1	 0	 69	 1	 1.1	 0.9;
	 117	 1	 10.79	 0	 0	 0	 34	 1	 0	 69	 1	 1.1	 0.9;
	 118	 1	 4.05	 0	 0	 0	 34	 1	 0	 69	 1	 1.1	 0.9;
	 119	 1	 6.96	 0	 0	 0	 34	 1	 0	 69	 1	 1.1	 0.9;
	 120	 1	 7.24	 0	 0	 0	 34	 1	 0	 69	 1	 1.1	 0.9;
	 121	 1	 1.74	 0	 0	 0	 34	 1	 0	 69	 1	 1.1	 0.9;
	 122	 1	 10.32	 0	 0	 0	 34	 1	 0	 69	 1	 1.1	 0.9;
	 123	 1	 1.83	 0	 0	 0	 34	 1	 0	 69	 1	 1.1	 0.9;
	 124	 1	 4.21	 0	 0	 0	 34	 1	 0	 69	 1	 1.1	 0.9;
	 125	 1	 7.78	 0	 0	 0	 34	 1	 0	 69	 1	 1.1	 0.9;
	 126	 1	 0	 0	 0	 0	 34	 1	 0	 138	 1	 1.1	 0.9;
	 127	 1	 3.62	 0	 0	 0	 34	 1	 0	 69	 1	 1.1	 0.9;
	 128	 1	 3.93	 0	 0	 0	 34	 1	 0	 69	 1	 1.1	 0.9;
	 129	 1	 7.46	 0	 0	 0	 34	 1	 0	 69	 1	 1.1	 0.9;
	 130	 1	 2.93	 0	 0	 0	 34	 1	 0	 69	 1	 1.1	 0.9;
	 131	 1	 7.12	 0	 0	 0	 34	 1	 0	 69	 1	 1.1	 0.9;
	 132	 1	 8.46	 0	 0	 0	 34	 1	 0	 69	 1	 1.1	 0.9;
	 133	 1	 4.37	 0	 0	 0	 34	 1	 0	 69	 1	 1.1	 0.9;
	 134	 1	 5.24	 0	 0	 0	 34	 1	 0	 69	 1	 1.1	 0.9;
	 135	 1	 6.6	 0	 0	 0	 34	 1	 0	 69	 1	 1.1	 0.9;
	 136	 1	 4.97	 0	 0	 0	 34	 1	 0	 69	 1	 1.1	 0.9;
	 137	 1	 2.51	 0	 0	 0	 34	 1	 0	 69	 1	 1.1	 0.9;
	 138	 1	 2.36	 0	 0	 0	 34	 1	 0	 69	 1	 1.1	 0.9;
	 139	 1	 3.38	 0	 0	 0	 34	 1	 0	 69	 1	 1.1	 0.9;
	 140	 1	 4.45	 0	 0	 0	 34	 1	 0	 69	 1	 1.1	 0.9;
	 141	 1	 2.04	 0	 0	 0	 34	 1	 0	 69	 1	 1.1	 0.9;
	 142	 1	 4.35	 0	 0	 0	 34	 1	 0	 69	 1	 1.1	 0.9;
	 143	 1	 0	 0	 0	 0	 34	 1	 0	 138	 1	 1.1	 0.9;
	 144	 1	 8.42	 0	 0	 0	 34	 1	 0	 69	 1	 1.1	 0.9;
	 145	 1	 15.32	 3.59	 0	 0	 34	 1	 0	 69	 1	 1.1	 0.9;
	 146	 1	 2.28	 0.53	 0	 0	 34	 1	 0	 69	 1	 1.1	 0.9;
	 147	 1	 12.99	 0	 0	 0	 34	 1	 0	 69	 1	 1.1	 0.9;
	 148	 1	 0	 0	 0	 0	 34	 1	 0	 138	 1	 1.1	 0.9;
	 149	 1	 8.34	 1.97	 0	 0	 34	 1	 0	 69	 1	 1.1	 0.9;
	 150	 1	 0	 0	 0	 0	 34	 1	 0	 138	 1	 1.1	 0.9;
	 151	 1	 4.5	 1.07	 0	 0	 34	 1	 0	 69	 1	 1.1	 0.9;
	 152	 1	 0	 0	 0	 0	 34	 1	 0	 138	 1	 1.1	 0.9;
	 153	 1	 8.15	 1.96	 0	 0	 34	 1	 0	 138	 1	 1.1	 0.9;
	 154	 1	 0	 0	 0	 0	 34	 1	 0	 230	 1	 1.1	 0.9;
	 155	 1	 4.11	 0.97	 0	 0	 34	 1	 0	 69	 1	 1.1	 0.9;
	 156	 1	 0	 0	 0	 0	 34	 1	 0	 138	 1	 1.1	 0.9;
	 157	 1	 7.83	 1.72	 0	 0	 34	 1	 0	 69	 1	 1.1	 0.9;
	 158	 1	 7.78	 0	 0	 0	 34	 1	 0	 69	 1	 1.1	 0.9;
	 159	 1	 0	 0	 0	 0	 34	 1	 0	 138	 1	 1.1	 0.9;
	 160	 1	 4.51	 1.06	 0	 0	 34	 1	 0	 69	 1	 1.1	 0.9;
	 161	 1	 4.71	 1.11	 0	 0	 34	 1	 0	 69	 1	 1.1	 0.9;
	 162	 1	 0	 0	 0	 0	 34	 1	 0	 138	 1	 1.1	 0.9;
	 163	 1	 0	 0	 0	 0	 34	 1	 0	 138	 1	 1.1	 0.9;
	 164	 1	 5.75	 1.34	 0	 0	 34	 1	 0	 69	 1	 1.1	 0.9;
	 165	 1	 3.01	 0.7	 0	 0	 34	 1	 0	 69	 1	 1.1	 0.9;
	 166	 1	 0	 0	 0	 0	 34	 1	 0	 345	 1	 1.1	 0.9;
	 167	 1	 5.8	 1.35	 0	 0	 34	 1	 0	 69	 1	 1.1	 0.9;
	 168	 1	 9.93	 2.3	 0	 0	 34	 1	 0	 69	 1	 1.1	 0.9;
	 169	 1	 5.76	 1.34	 0	 0	 34	 1	 0	 69	 1	 1.1	 0.9;
	 170	 1	 3.79	 0.88	 0	 0	 34	 1	 0	 69	 1	 1.1	 0.9;
	 171	 1	 3	 0.7	 0	 0	 34	 1	 0	 69	 1	 1.1	 0.9;
	 172	 1	 0	 0	 0	 0	 34	 1	 0	 138	 1	 1.1	 0.9;
	 173	 1	 0	 0	 0	 0	 34	 1	 0	 138	 1	 1.1	 0.9;
	 174	 1	 0	 0	 0	 0	 34	 1	 0	 138	 1	 1.1	 0.9;
	 175	 1	 5.02	 1.18	 0	 0	 34	 1	 0	 69	 1	 1.1	 0.9;
	 176	 1	 2.25	 0.53	 0	 0	 34	 1	 0	 138	 1	 1.1	 0.9;
	 177	 1	 0	 0	 0	 0	 34	 1	 0	 138	 1	 1.1	 0.9;
	 178	 1	 3.65	 0.86	 0	 0	 34	 1	 0	 138	 1	 1.1	 0.9;
	 179	 1	 0	 0	 0	 0	 34	 1	 0	 138	 1	 1.1	 0.9;
	 180	 1	 0	 0	 0	 0	 34	 1	 0	 138	 1	 1.1	 0.9;
	 181	 1	 1.46	 0.35	 0	 0	 34	 1	 0	 138	 1	 1.1	 0.9;
	 182	 1	 0	 0	 0	 0	 34	 1	 0	 138	 1	 1.1	 0.9;
	 183	 1	 2.57	 0.61	 0	 0	 34	 1	 0	 138	 1	 1.1	 0.9;
	 184	 1	 2.79	 0.66	 0	 0	 34	 1	 0	 138	 1	 1.1	 0.9;
	 185	 1	 0	 0	 0	 0	 34	 1	 0	 138	 1	 1.1	 0.9;
	 186	 1	 9.31	 2.18	 0	 0	 34	 1	 0	 69	 1	 1.1	 0.9;
	 187	 1	 0	 0	 0	 0	 34	 1	 0	 138	 1	 1.1	 0.9;
	 188	 1	 4.11	 0.98	 0	 0	 34	 1	 0	 138	 1	 1.1	 0.9;
	 189	 1	 7.15	 1.67	 0	 0	 34	 1	 0	 69	 1	 1.1	 0.9;
	 190	 1	 1.41	 0.33	 0	 0	 34	 1	 0	 69	 1	 1.1	 0.9;
	 191	 1	 6.81	 1.58	 0	 0	 34	 1	 0	 69	 1	 1.1	 0.9;
	 192	 1	 2.05	 0.47	 0	 0	 34	 1	 0	 69	 1	 1.1	 0.9;
	 193	 1	 4.02	 0.94	 0	 0	 34	 1	 0	 69	 1	 1.1	 0.9;
	 194	 1	 4.89	 1.13	 0	 0	 34	 1	 0	 69	 1	 1.1	 0.9;
	 195	 1	 17.89	 4.14	 0	 0	 34	 1	 0	 69	 1	 1.1	 0.9;
	 196	 1	 4.84	 1.12	 0	 0	 34	 1	 0	 69	 1	 1.1	 0.9;
	 197	 1	 10.72	 2.5	 0	 0	 34	 1	 0	 69	 1	 1.1	 0.9;
	 198	 1	 0	 0	 0	 0	 34	 1	 0	 138	 1	 1.1	 0.9;
	 199	 1	 0	 0	 0	 0	 34	 1	 0	 138	 1	 1.1	 0.9;
	 200	 1	 0	 0	 0	 0	 34	 1	 0	 138	 1	 1.1	 0.9;
...
];

mpc_regionR2.gen = [
%	bus         Pg          Qg          Qmax        Qmin        Vg          mBase       status      Pmax        Pmin        Pc1         Pc2         Qc1min      Qc1max      Qc2min      Qc2max      ramp_agc    ramp_10     ramp_30     ramp_q      apf         
	 1	 497.5	 40.1	 257.2	-177	 1	 100	 1	 531	 464	 0	 0	 0	 0	 0	 0	 0	 0	 0	 0	 531;
	 1	 374.75	 29.9	 192	-132.2	 1	 100	 1	 396.5	 353	 0	 0	 0	 0	 0	 0	 0	 0	 0	 0	 396.5;
	 2	 124.9	 24.3	 105.2	-56.6	 1	 100	 1	 169.8	 80	 0	 0	 0	 0	 0	 0	 0	 0	 0	 0	 169.8;
	 2	 124.9	 24.3	 105.2	-56.6	 1	 100	 1	 169.8	 80	 0	 0	 0	 0	 0	 0	 0	 0	 0	 0	 169.8;
	 2	 124.9	 24.3	 105.2	-56.6	 1	 100	 1	 169.8	 80	 0	 0	 0	 0	 0	 0	 0	 0	 0	 0	 169.8;
	 2	 124.9	 24.3	 105.2	-56.6	 1	 100	 1	 169.8	 80	 0	 0	 0	 0	 0	 0	 0	 0	 0	 0	 169.8;
	 2	 124.9	 24.3	 105.2	-56.6	 1	 100	 1	 169.8	 80	 0	 0	 0	 0	 0	 0	 0	 0	 0	 0	 169.8;
	 2	 124.9	 24.3	 105.2	-56.6	 1	 100	 1	 169.8	 80	 0	 0	 0	 0	 0	 0	 0	 0	 0	 0	 169.8;
	 2	 245.5	 59.55	 257.8	-138.7	 1	 100	 1	 416	 75	 0	 0	 0	 0	 0	 0	 0	 0	 0	 0	 416;
	 2	 245.5	 59.55	 257.8	-138.7	 1	 100	 1	 416	 75	 0	 0	 0	 0	 0	 0	 0	 0	 0	 0	 416;
	 3	 90.8	 11.8	 75.8	-52.2	 1	 100	 1	 156.6	 25	 0	 0	 0	 0	 0	 0	 0	 0	 0	 0	 156.6;
	 3	 66.7	 16.25	 70.3	-37.8	 1	 100	 1	 113.4	 20	 0	 0	 0	 0	 0	 0	 0	 0	 0	 0	 113.4;
	 3	 42.5	 10.75	 46.5	-25	 1	 100	 1	 75	 10	 0	 0	 0	 0	 0	 0	 0	 0	 0	 0	 75;
	 3	 68.85	 11.85	 51.3	-27.6	 1	 100	 1	 82.7	 55	 0	 0	 0	 0	 0	 0	 0	 0	 0	 0	 82.7;
	 4	 28.27	 5.3	 25.3	-14.7	 1	 100	 1	 44	 12.54	 0	 0	 0	 0	 0	 0	 0	 0	 0	 0	 44;
];

mpc_regionR2.branch = [
%	fbus        tbus        r           x           b           rateA       rateB       rateC       ratio       angle       status      angmin      angmax      
	 1	 541	 0.000128	 0.002144	 0.02024	 970	 1018.5	 1067	 0	 0	 1	-30	 30;
	 1	 571	 0.000407	 0.004031	 0.069	 1097	 1151.9	 1206.7	 0	 0	 1	-30	 30;
	 1	 571	 0.000407	 0.004031	 0.069	 1097	 1151.9	 1206.7	 0	 0	 1	-30	 30;
	 1	 707	 0.000259	 0.003936	 0.07053	 1419	 1489.9	 1560.9	 0	 0	 1	-30	 30;
	 1	 713	 0.000161	 0.012869	 0	 1150	 1150	 1150	 1	 0	 1	-30	 30;
	 1	 713	 0.000161	 0.012869	 0	 1150	 1150	 1150	 1	 0	 1	-30	 30;
	 2	 518	 0.000363	 0.004268	 0.07455	 1190	 1249.5	 1309	 0	 0	 1	-30	 30;
	 2	 541	 0.000361	 0.004662	 0.07824	 1251	 1313.5	 1376.1	 0	 0	 1	-30	 30;
	 2	 701	 0.000713	 0.007781	 0.0764	 736	 772.8	 809.6	 0	 0	 1	-30	 30;
	 2	 715	 0.000176	 0.014094	 0	 1050	 1050	 1050	 1	 0	 1	-30	 30;
	 2	 715	 0.000176	 0.014094	 0	 1050	 1050	 1050	 1	 0	 1	-30	 30;
	 3	 57	 0.000222	 0.002938	 0.04706	 1251	 1313.5	 1376.1	 0	 0	 1	-30	 30;
	 3	 61	 0.000204	 0.002397	 0.04187	 1190	 1249.5	 1309	 0	 0	 1	-30	 30;
	 3	 65	 0.00021	 0.002778	 0.0445	 1251	 1313.5	 1376.1	 0	 0	 1	-30	 30;
	 3	 695	 0.000341	 0.005706	 0.10498	 1536	 1612.8	 1689.6	 0	 0	 1	-30	 30;
	 3	 720	 0.011027	 0.34182	 0	 50	 50	 50	 1	 0	 1	-30	 30;
	 3	 720	 0.011027	 0.34182	 0	 50	 50	 50	 1	 0	 1	-30	 30;
	 4	 564	 0.004355	 0.012358	 0.00019	 64	 67.2	 70.4	 0	 0	 1	-30	 30;
	 4	 855	 0.002958	 0.008484	 0.00013	 64	 67.2	 70.4	 0	 0	 1	-30	 30;
	 5	 6	 0.008543	 0.032473	 0.00909	 159	 166.9	 174.9	 0	 0	 1	-30	 30;
	 5	 721	 0.003471	 0.12495	 0	 100	 100	 100	 1	 0	 1	-30	 30;
	 5	 721	 0.003471	 0.12495	 0	 100	 100	 100	 1	 0	 1	-30	 30;
	 6	 7	 0.013052	 0.033885	 0.00822	 118	 123.9	 129.8	 0	 0	 1	-30	 30;
	 6	 722	 0.002136	 0.083306	 0	 150	 150	 150	 1	 0	 1	-30	 30;
	 6	 722	 0.002136	 0.083306	 0	 150	 150	 150	 1	 0	 1	-30	 30;
	 6	 739	 0.0085	 0.041251	 0.00943	 175	 183.7	 192.5	 0	 0	 1	-30	 30;
	 7	 13	 0.005954	 0.028896	 0.00661	 175	 183.7	 192.5	 0	 0	 1	-30	 30;
	 7	 693	 0.005996	 0.033055	 0.00773	 191	 200.6	 210.1	 0	 0	 1	-30	 30;
	 8	 56	 0.008377	 0.045967	 0.01215	 193	 202.6	 212.3	 0	 0	 1	-30	 30;
	 8	 692	 0.006244	 0.038388	 0.01107	 219	 229.9	 240.9	 0	 0	 1	-30	 30;
	 9	 42	 0.048086	 0.038055	 0.00048	 24	 25.2	 26.4	 0	 0	 1	-30	 30;
	 10	 40	 0.008306	 0.030713	 0.00057	 80	 84	 88	 0	 0	 1	-30	 30;
	 10	 723	 0.005961	 0.026562	 0.00045	 88	 92.4	 96.8	 0	 0	 1	-30	 30;
	 11	 13	 0.006097	 0.022182	 0.00679	 159	 166.9	 174.9	 0	 0	 1	-30	 30;
	 11	 14	 0.004892	 0.023154	 0.00557	 175	 183.7	 192.5	 0	 0	 1	-30	 30;
	 11	 723	 0.003471	 0.12495	 0	 100	 100	 100	 1	 0	 1	-30	 30;
	 11	 723	 0.003471	 0.12495	 0	 100	 100	 100	 1	 0	 1	-30	 30;
	 723	 12	 0.009872	 0.032578	 0.00053	 71	 74.6	 78.1	 0	 0	 1	-30	 30;
	 12	 725	 0.057723	 0.097242	 0.00139	 37	 38.9	 40.7	 0	 0	 1	-30	 30;
	 13	 724	 0.003471	 0.12495	 0	 100	 100	 100	 1	 0	 1	-30	 30;
	 13	 724	 0.003471	 0.12495	 0	 100	 100	 100	 1	 0	 1	-30	 30;
	 14	 19	 0.001087	 0.004133	 0.00116	 159	 166.9	 174.9	 0	 0	 1	-30	 30;
	 14	 107	 0.00864	 0.024094	 0.00506	 118	 123.9	 129.8	 0	 0	 1	-30	 30;
	 14	 655	 0.002883	 0.01044	 0.00224	 142	 149.1	 156.2	 0	 0	 1	-30	 30;
	 14	 725	 0.003471	 0.12495	 0	 100	 100	 100	 1	 0	 1	-30	 30;
	 14	 725	 0.003471	 0.12495	 0	 100	 100	 100	 1	 0	 1	-30	 30;
	 15	 26	 0.012272	 0.022142	 0.00032	 39	 41	 42.9	 0	 0	 1	-30	 30;
	 15	 726	 0.009623	 0.026621	 0.00062	 71	 74.6	 78.1	 0	 0	 1	-30	 30;
	 16	 17	 0.006175	 0.014334	 0.00027	 59	 61.9	 64.9	 0	 0	 1	-30	 30;
	 16	 25	 0.003813	 0.010821	 0.00017	 64	 67.2	 70.4	 0	 0	 1	-30	 30;
	 16	 125	 0.025087	 0.031141	 0.00068	 35	 36.8	 38.5	 0	 0	 1	-30	 30;
	 17	 18	 0.007775	 0.019773	 0.00031	 59	 61.9	 64.9	 0	 0	 1	-30	 30;
	 18	 687	 0.009248	 0.018311	 0.00027	 41	 43.1	 45.1	 0	 0	 1	-30	 30;
	 19	 667	 0.012685	 0.043518	 0.01043	 142	 149.1	 156.2	 0	 0	 1	-30	 30;
	 19	 726	 0.002136	 0.083306	 0	 150	 150	 150	 1	 0	 1	-30	 30;
	 19	 726	 0.002136	 0.083306	 0	 150	 150	 150	 1	 0	 1	-30	 30;
	 20	 21	 0.006884	 0.017507	 0.00028	 59	 61.9	 64.9	 0	 0	 1	-30	 30;
	 20	 686	 0.008739	 0.017301	 0.00025	 41	 43.1	 45.1	 0	 0	 1	-30	 30;
	 21	 125	 0.010436	 0.029933	 0.00046	 64	 67.2	 70.4	 0	 0	 1	-30	 30;
	 22	 125	 0.021736	 0.017201	 0.00022	 24	 25.2	 26.4	 0	 0	 1	-30	 30;
	 23	 125	 0.018173	 0.014382	 0.00018	 24	 25.2	 26.4	 0	 0	 1	-30	 30;
	 24	 25	 0.004047	 0.01218	 0.00024	 71	 74.6	 78.1	 0	 0	 1	-30	 30;
	 24	 26	 0.002651	 0.011814	 0.0002	 88	 92.4	 96.8	 0	 0	 1	-30	 30;
	 24	 106	 0.004626	 0.022547	 0.00042	 95	 99.8	 104.5	 0	 0	 1	-30	 30;
	 24	 125	 0.007708	 0.025437	 0.00041	 71	 74.6	 78.1	 0	 0	 1	-30	 30;
	 26	 27	 0.004499	 0.015741	 0.00033	 80	 84	 88	 0	 0	 1	-30	 30;
	 27	 28	 0.005598	 0.014838	 0.00038	 71	 74.6	 78.1	 0	 0	 1	-30	 30;
	 27	 33	 0.019158	 0.044478	 0.00066	 57	 59.9	 62.7	 0	 0	 1	-30	 30;
	 27	 34	 0.041807	 0.033085	 0.00042	 24	 25.2	 26.4	 0	 0	 1	-30	 30;
	 28	 748	 0.004436	 0.019051	 0.00035	 88	 92.4	 96.8	 0	 0	 1	-30	 30;
	 29	 33	 0.010225	 0.026285	 0.00041	 59	 61.9	 64.9	 0	 0	 1	-30	 30;
	 29	 73	 0.007665	 0.023538	 0.00044	 71	 74.6	 78.1	 0	 0	 1	-30	 30;
	 30	 31	 0.006814	 0.017516	 0.00027	 59	 61.9	 64.9	 0	 0	 1	-30	 30;
	 30	 48	 0.007483	 0.024695	 0.0004	 71	 74.6	 78.1	 0	 0	 1	-30	 30;
	 31	 32	 0.018765	 0.018131	 0.00026	 28	 29.4	 30.8	 0	 0	 1	-30	 30;
	 32	 33	 0.013763	 0.018089	 0.00025	 33	 34.7	 36.3	 0	 0	 1	-30	 30;
	 33	 45	 0.028875	 0.022634	 0.00029	 24	 25.2	 26.4	 0	 0	 1	-30	 30;
	 35	 36	 0.033467	 0.022481	 0.0004	 24	 25.2	 26.4	 0	 0	 1	-30	 30;
	 36	 37	 0.023951	 0.018774	 0.00024	 24	 25.2	 26.4	 0	 0	 1	-30	 30;
	 725	 36	 0.015149	 0.024181	 0.00056	 41	 43.1	 45.1	 0	 0	 1	-30	 30;
	 37	 38	 0.025907	 0.016772	 0.00032	 24	 25.2	 26.4	 0	 0	 1	-30	 30;
	 38	 39	 0.011703	 0.017927	 0.00025	 35	 36.8	 38.5	 0	 0	 1	-30	 30;
	 39	 40	 0.011713	 0.0251	 0.00044	 57	 59.9	 62.7	 0	 0	 1	-30	 30;
	 39	 42	 0.014733	 0.037872	 0.00059	 59	 61.9	 64.9	 0	 0	 1	-30	 30;
	 39	 45	 0.019371	 0.018716	 0.00027	 28	 29.4	 30.8	 0	 0	 1	-30	 30;
	 41	 42	 0.009191	 0.021338	 0.00032	 57	 59.9	 62.7	 0	 0	 1	-30	 30;
	 41	 47	 0.015334	 0.020153	 0.00028	 33	 34.7	 36.3	 0	 0	 1	-30	 30;
	 42	 43	 0.010549	 0.02582	 0.00044	 59	 61.9	 64.9	 0	 0	 1	-30	 30;
	 42	 727	 0.013783	 0.049237	 0.00098	 80	 84	 88	 0	 0	 1	-30	 30;
	 43	 727	 0.011086	 0.028498	 0.00044	 59	 61.9	 64.9	 0	 0	 1	-30	 30;
	 44	 46	 0.008595	 0.017017	 0.00025	 41	 43.1	 45.1	 0	 0	 1	-30	 30;
	 44	 48	 0.008374	 0.021296	 0.00034	 59	 61.9	 64.9	 0	 0	 1	-30	 30;
	 46	 47	 0.021283	 0.016843	 0.00021	 24	 25.2	 26.4	 0	 0	 1	-30	 30;
	 48	 54	 0.003035	 0.015446	 0.00035	 103	 108.2	 113.3	 0	 0	 1	-30	 30;
	 48	 727	 0.010295	 0.034344	 0.00054	 71	 74.6	 78.1	 0	 0	 1	-30	 30;
	 49	 56	 0.002049	 0.012975	 0.00352	 219	 229.9	 240.9	 0	 0	 1	-30	 30;
	 49	 727	 0.002136	 0.083306	 0	 150	 150	 150	 1	 0	 1	-30	 30;
	 49	 727	 0.002136	 0.083306	 0	 150	 150	 150	 1	 0	 1	-30	 30;
	 50	 52	 0.032501	 0.023494	 0.00036	 24	 25.2	 26.4	 0	 0	 1	-30	 30;
	 727	 51	 0.012411	 0.024323	 0.00036	 41	 43.1	 45.1	 0	 0	 1	-30	 30;
	 722	 52	 0.013923	 0.076674	 0.00173	 110	 115.5	 121	 0	 0	 1	-30	 30;
	 52	 728	 0.015756	 0.05256	 0.00083	 71	 74.6	 78.1	 0	 0	 1	-30	 30;
	 53	 728	 0.013867	 0.025784	 0.0006	 57	 59.9	 62.7	 0	 0	 1	-30	 30;
	 54	 55	 0.003095	 0.016624	 0.00039	 110	 115.5	 121	 0	 0	 1	-30	 30;
	 55	 728	 0.00283	 0.01991	 0.0004	 119	 125	 130.9	 0	 0	 1	-30	 30;
	 56	 728	 0.002136	 0.083306	 0	 150	 150	 150	 1	 0	 1	-30	 30;
	 56	 728	 0.002136	 0.083306	 0	 150	 150	 150	 1	 0	 1	-30	 30;
	 56	 739	 0.001645	 0.012449	 0.00611	 381	 400.1	 419.1	 0	 0	 1	-30	 30;
	 56	 868	 0.033159	 0.083381	 0.02161	 118	 123.9	 129.8	 0	 0	 1	-30	 30;
	 57	 75	 0.000117	 0.001481	 0.02587	 1251	 1313.5	 1376.1	 0	 0	 1	-30	 30;
	 57	 729	 0.004748	 0.17093	 0	 100	 100	 100	 1	 0	 1	-30	 30;
	 57	 729	 0.004748	 0.17093	 0	 100	 100	 100	 1	 0	 1	-30	 30;
	 58	 59	 0.042746	 0.065483	 0.00092	 35	 36.8	 38.5	 0	 0	 1	-30	 30;
	 722	 58	 0.025895	 0.061318	 0.00112	 59	 61.9	 64.9	 0	 0	 1	-30	 30;
	 729	 59	 0.028985	 0.067294	 0.001	 57	 59.9	 62.7	 0	 0	 1	-30	 30;
	 720	 60	 0.11219	 0.1234	 0.00165	 30	 31.5	 33	 0	 0	 1	-30	 30;
	 721	 60	 0.0528	 0.17615	 0.00279	 71	 74.6	 78.1	 0	 0	 1	-30	 30;
	 61	 695	 0.000295	 0.003996	 0.06088	 1251	 1313.5	 1376.1	 0	 0	 1	-30	 30;
	 61	 730	 0.011027	 0.34182	 0	 50	 50	 50	 1	 0	 1	-30	 30;
	 61	 730	 0.011027	 0.34182	 0	 50	 50	 50	 1	 0	 1	-30	 30;
	 730	 62	 0.023045	 0.052944	 0.0008	 57	 59.9	 62.7	 0	 0	 1	-30	 30;
	 62	 899	 0.017958	 0.046163	 0.00071	 59	 61.9	 64.9	 0	 0	 1	-30	 30;
	 63	 69	 0.068489	 0.054202	 0.00068	 24	 25.2	 26.4	 0	 0	 1	-30	 30;
	 63	 735	 0.014174	 0.0329	 0.00063	 59	 61.9	 64.9	 0	 0	 1	-30	 30;
	 64	 65	 0.000104	 0.001796	 0.01773	 998	 1047.9	 1097.8	 0	 0	 1	-30	 30;
	 64	 566	 0.000594	 0.00686	 0.06014	 736	 772.8	 809.6	 0	 0	 1	-30	 30;
	 64	 731	 0.000192	 0.015383	 0	 650	 650	 650	 1	 0	 1	-30	 30;
	 65	 734	 0.000208	 0.015578	 0	 950	 950	 950	 1	 0	 1	-30	 30;
	 66	 544	 0.007708	 0.0285	 0.00053	 80	 84	 88	 0	 0	 1	-30	 30;
	 735	 66	 0.00546	 0.033564	 0.0006	 110	 115.5	 121	 0	 0	 1	-30	 30;
	 67	 79	 0.003407	 0.010044	 0.00234	 128	 134.4	 140.8	 0	 0	 1	-30	 30;
	 67	 153	 0.002316	 0.006013	 0.00146	 118	 123.9	 129.8	 0	 0	 1	-30	 30;
	 68	 79	 0.002027	 0.007969	 0.00208	 159	 166.9	 174.9	 0	 0	 1	-30	 30;
	 68	 737	 0.003836	 0.015078	 0.00394	 159	 166.9	 174.9	 0	 0	 1	-30	 30;
	 733	 70	 0.013094	 0.031007	 0.00057	 59	 61.9	 64.9	 0	 0	 1	-30	 30;
	 71	 154	 0.000143	 0.001853	 0.0042	 579	 608	 636.9	 0	 0	 1	-30	 30;
	 71	 691	 0.004002	 0.055111	 0.10997	 579	 608	 636.9	 0	 0	 1	-30	 30;
	 71	 736	 0.000577	 0.031138	 0	 350	 350	 350	 1	 0	 1	-30	 30;
	 71	 736	 0.000577	 0.031138	 0	 350	 350	 350	 1	 0	 1	-30	 30;
	 72	 154	 0.000393	 0.004551	 0.00872	 512	 537.6	 563.2	 0	 0	 1	-30	 30;
	 731	 72	 0.000332	 0.002539	 0.00944	 635	 666.8	 698.5	 0	 0	 1	-30	 30;
	 72	 737	 0.000208	 0.014532	 0	 750	 750	 750	 1	 0	 1	-30	 30;
	 738	 72	 0.000495	 0.037108	 0	 450	 450	 450	 1	 0	 1	-30	 30;
	 72	 801	 0.003278	 0.028835	 0.06017	 435	 456.8	 478.5	 0	 0	 1	-30	 30;
	 73	 83	 0.00724	 0.019138	 0.00035	 64	 67.2	 70.4	 0	 0	 1	-30	 30;
	 73	 744	 0.014077	 0.046454	 0.00075	 71	 74.6	 78.1	 0	 0	 1	-30	 30;
	 74	 84	 0.016154	 0.030037	 0.0007	 57	 59.9	 62.7	 0	 0	 1	-30	 30;
	 728	 74	 0.023999	 0.059567	 0.00099	 59	 61.9	 64.9	 0	 0	 1	-30	 30;
	 75	 76	 0.000123	 0.002123	 0.02096	 998	 1047.9	 1097.8	 0	 0	 1	-30	 30;
	 75	 739	 0.000529	 0.036996	 0	 400	 400	 400	 1	 0	 1	-30	 30;
	 75	 739	 0.000529	 0.036996	 0	 400	 400	 400	 1	 0	 1	-30	 30;
	 76	 78	 7.6e-05	 0.001023	 0.01559	 1251	 1313.5	 1376.1	 0	 0	 1	-30	 30;
	 76	 80	 0.000118	 0.001358	 0.0119	 736	 772.8	 809.6	 0	 0	 1	-30	 30;
	 76	 740	 0.000359	 0.026907	 0	 550	 550	 550	 1	 0	 1	-30	 30;
	 76	 740	 0.000359	 0.026907	 0	 550	 550	 550	 1	 0	 1	-30	 30;
	 77	 156	 0.001734	 0.00716	 0.00169	 159	 166.9	 174.9	 0	 0	 1	-30	 30;
	 77	 741	 0.00097	 0.007377	 0.00232	 250	 262.5	 275	 0	 0	 1	-30	 30;
	 77	 743	 0.001416	 0.006377	 0.0017	 175	 183.7	 192.5	 0	 0	 1	-30	 30;
	 78	 80	 6.8e-05	 0.000784	 0.00687	 736	 772.8	 809.6	 0	 0	 1	-30	 30;
	 78	 82	 9.1e-05	 0.001053	 0.00923	 736	 772.8	 809.6	 0	 0	 1	-30	 30;
	 78	 741	 0.000783	 0.042278	 0	 350	 350	 350	 1	 0	 1	-30	 30;
	 78	 741	 0.000783	 0.042278	 0	 350	 350	 350	 1	 0	 1	-30	 30;
	 740	 79	 0.001397	 0.009368	 0.00226	 219	 229.9	 240.9	 0	 0	 1	-30	 30;
	 79	 743	 0.001749	 0.009317	 0.00261	 193	 202.6	 212.3	 0	 0	 1	-30	 30;
	 80	 742	 0.004748	 0.17093	 0	 100	 100	 100	 1	 0	 1	-30	 30;
	 80	 742	 0.004748	 0.17093	 0	 100	 100	 100	 1	 0	 1	-30	 30;
	 81	 107	 0.002008	 0.009898	 0.00268	 185	 194.2	 203.5	 0	 0	 1	-30	 30;
	 81	 743	 0.001486	 0.008153	 0.00216	 193	 202.6	 212.3	 0	 0	 1	-30	 30;
	 82	 604	 0.000661	 0.007721	 0.07344	 768	 806.4	 844.8	 0	 0	 1	-30	 30;
	 82	 743	 0.000219	 0.016443	 0	 900	 900	 900	 1	 0	 1	-30	 30;
	 744	 83	 0.006698	 0.026057	 0.00043	 80	 84	 88	 0	 0	 1	-30	 30;
	 742	 84	 0.007981	 0.022648	 0.00036	 64	 67.2	 70.4	 0	 0	 1	-30	 30;
	 85	 95	 0.006526	 0.015973	 0.00027	 59	 61.9	 64.9	 0	 0	 1	-30	 30;
	 85	 102	 0.023049	 0.01768	 0.00024	 24	 25.2	 26.4	 0	 0	 1	-30	 30;
	 85	 149	 0.033263	 0.027378	 0.00055	 28	 29.4	 30.8	 0	 0	 1	-30	 30;
	 85	 757	 0.004516	 0.01757	 0.00029	 80	 84	 88	 0	 0	 1	-30	 30;
	 86	 103	 0.005125	 0.016913	 0.00027	 71	 74.6	 78.1	 0	 0	 1	-30	 30;
	 86	 117	 0.007901	 0.020311	 0.00031	 59	 61.9	 64.9	 0	 0	 1	-30	 30;
	 87	 89	 0.014501	 0.02656	 0.00046	 41	 43.1	 45.1	 0	 0	 1	-30	 30;
	 87	 110	 0.024479	 0.019372	 0.00024	 24	 25.2	 26.4	 0	 0	 1	-30	 30;
	 88	 117	 0.049473	 0.037949	 0.00051	 24	 25.2	 26.4	 0	 0	 1	-30	 30;
	 88	 132	 0.00717	 0.016647	 0.00025	 57	 59.9	 62.7	 0	 0	 1	-30	 30;
	 88	 147	 0.011977	 0.028362	 0.00052	 59	 61.9	 64.9	 0	 0	 1	-30	 30;
	 89	 90	 0.00729	 0.013021	 0.00019	 39	 41	 42.9	 0	 0	 1	-30	 30;
	 89	 96	 0.018768	 0.014853	 0.00019	 24	 25.2	 26.4	 0	 0	 1	-30	 30;
	 89	 103	 0.012808	 0.049826	 0.00083	 80	 84	 88	 0	 0	 1	-30	 30;
	 89	 752	 0.013919	 0.035257	 0.0007	 64	 67.2	 70.4	 0	 0	 1	-30	 30;
	 89	 757	 0.005999	 0.03222	 0.00076	 110	 115.5	 121	 0	 0	 1	-30	 30;
	 90	 94	 0.017232	 0.026397	 0.00037	 35	 36.8	 38.5	 0	 0	 1	-30	 30;
	 90	 751	 0.006346	 0.015532	 0.00027	 59	 61.9	 64.9	 0	 0	 1	-30	 30;
	 91	 92	 0.013733	 0.012878	 0.0002	 28	 29.4	 30.8	 0	 0	 1	-30	 30;
	 91	 147	 0.006331	 0.016273	 0.00025	 59	 61.9	 64.9	 0	 0	 1	-30	 30;
	 93	 147	 0.020892	 0.016534	 0.00021	 24	 25.2	 26.4	 0	 0	 1	-30	 30;
	 95	 101	 0.003831	 0.009072	 0.00017	 59	 61.9	 64.9	 0	 0	 1	-30	 30;
	 97	 98	 0.000498	 0.002859	 0.00081	 205	 215.2	 225.5	 0	 0	 1	-30	 30;
	 97	 108	 0.000972	 0.004795	 0.0013	 185	 194.2	 203.5	 0	 0	 1	-30	 30;
	 97	 745	 0.00806	 0.24987	 0	 50	 50	 50	 1	 0	 1	-30	 30;
	 97	 745	 0.00806	 0.24987	 0	 50	 50	 50	 1	 0	 1	-30	 30;
	 98	 99	 0.000535	 0.003581	 0.0011	 230	 241.5	 253	 0	 0	 1	-30	 30;
	 98	 108	 0.00121	 0.006949	 0.00197	 205	 215.2	 225.5	 0	 0	 1	-30	 30;
...
];

mpc_regionR2.gencost = [
%	2           startup     shutdown    n           c(n-1)...c0 
	 2	 0	 0	 3	 0	 39.433903	 0;
	 2	 0	 0	 3	 0	 41.90386	 0;
	 2	 0	 0	 3	 0	 32.926315	 0;
	 2	 0	 0	 3	 0	 31.600137	 0;
	 2	 0	 0	 3	 0	 32.804275	 0;
	 2	 0	 0	 3	 0	 22.205802	 0;
	 2	 0	 0	 3	 0	 24.457825	 0;
	 2	 0	 0	 3	 0	 40.784314	 0;
	 2	 0	 0	 3	 0	 41.332358	 0;
	 2	 0	 0	 3	 0	 25.438935	 0;
	 2	 0	 0	 3	 0	 29.97745	 0;
	 2	 0	 0	 3	 0	 41.798024	 0;
	 2	 0	 0	 3	 0	 106.930723	 0;
	 2	 0	 0	 3	 0	 112.903613	 0;
	 2	 0	 0	 3	 0	 55.97405	 0;
];


% -------------------- mpc_regionR3 --------------------

mpc_regionR3.version = '2';
mpc_regionR3.baseMVA = 100.0000;
mpc_regionR3.bus = [
%	bus_i       type        Pd          Qd          Gs          Bs          area        Vm          Va          baseKV      zone        Vmax        Vmin        
	 1	 2	 0	 0	 0	 0	 34	 1	 0	 345	 1	 1.1	 0.9;
	 2	 2	 0	 0	 0	 0	 34	 1	 0	 345	 1	 1.1	 0.9;
	 3	 2	 0	 0	 0	 0	 34	 1	 0	 230	 1	 1.1	 0.9;
	 4	 2	 0	 0	 0	 0	 34	 1	 0	 138	 1	 1.1	 0.9;
	 5	 2	 0	 0	 0	 0	 34	 1	 0	 345	 1	 1.1	 0.9;
	 6	 2	 0	 0	 0	 0	 34	 1	 0	 230	 1	 1.1	 0.9;
	 7	 2	 0	 0	 0	 0	 34	 1	 0	 345	 1	 1.1	 0.9;
	 8	 2	 0	 0	 0	 0	 34	 1	 0	 345	 1	 1.1	 0.9;
	 9	 2	 0	 0	 0	 0	 34	 1	 0	 345	 1	 1.1	 0.9;
	 10	 2	 0	 0	 0	 0	 34	 1	 0	 345	 1	 1.1	 0.9;
	 11	 2	 0	 0	 0	 0	 34	 1	 0	 345	 1	 1.1	 0.9;
	 12	 1	 0	 0	 0	 0	 34	 1	 0	 138	 1	 1.1	 0.9;
	 13	 1	 0	 0	 0	 0	 34	 1	 0	 345	 1	 1.1	 0.9;
	 14	 1	 0	 0	 0	 0	 34	 1	 0	 138	 1	 1.1	 0.9;
	 15	 1	 7.32	 4.05	 0	 0	 34	 1	 0	 69	 1	 1.1	 0.9;
	 16	 1	 2.52	 1.55	 0	 0	 34	 1	 0	 69	 1	 1.1	 0.9;
	 17	 1	 2.23	 1.03	 0	 0	 34	 1	 0	 69	 1	 1.1	 0.9;
	 18	 1	 0	 0	 0	 0	 34	 1	 0	 138	 1	 1.1	 0.9;
	 19	 1	 4.96	 2.41	 0	 0	 34	 1	 0	 69	 1	 1.1	 0.9;
	 20	 1	 2.22	 1.32	 0	 0	 34	 1	 0	 69	 1	 1.1	 0.9;
	 21	 1	 2.9	 1.56	 0	 0	 34	 1	 0	 69	 1	 1.1	 0.9;
	 22	 1	 6.71	 3.14	 0	 0	 34	 1	 0	 138	 1	 1.1	 0.9;
	 23	 1	 11.98	 6.61	 0	 0	 34	 1	 0	 138	 1	 1.1	 0.9;
	 24	 1	 8.93	 1.99	 0	 0	 34	 1	 0	 138	 1	 1.1	 0.9;
	 25	 1	 44.11	 9.74	 0	 0	 34	 1	 0	 138	 1	 1.1	 0.9;
	 26	 1	 16.28	 0	 0	 0	 34	 1	 0	 69	 1	 1.1	 0.9;
	 27	 1	 7.79	 0	 0	 0	 34	 1	 0	 69	 1	 1.1	 0.9;
	 28	 1	 10.84	 0	 0	 0	 34	 1	 0	 69	 1	 1.1	 0.9;
	 29	 1	 7.57	 0	 0	 0	 34	 1	 0	 69	 1	 1.1	 0.9;
	 30	 1	 6.95	 1.62	 0	 0	 34	 1	 0	 69	 1	 1.1	 0.9;
	 31	 1	 5.23	 1.21	 0	 0	 34	 1	 0	 69	 1	 1.1	 0.9;
	 32	 1	 7.52	 1.76	 0	 0	 34	 1	 0	 69	 1	 1.1	 0.9;
	 33	 1	 0	 0	 0	 0	 34	 1	 0	 138	 1	 1.1	 0.9;
	 34	 1	 5.25	 1.21	 0	 0	 34	 1	 0	 69	 1	 1.1	 0.9;
	 35	 1	 6.29	 1.46	 0	 0	 34	 1	 0	 69	 1	 1.1	 0.9;
	 36	 1	 6.2	 1.46	 0	 0	 34	 1	 0	 69	 1	 1.1	 0.9;
	 37	 1	 2.97	 0.7	 0	 0	 34	 1	 0	 69	 1	 1.1	 0.9;
	 38	 1	 6.53	 1.54	 0	 0	 34	 1	 0	 69	 1	 1.1	 0.9;
	 39	 1	 9.14	 2.15	 0	 0	 34	 1	 0	 69	 1	 1.1	 0.9;
	 40	 1	 7.74	 1.83	 0	 0	 34	 1	 0	 69	 1	 1.1	 0.9;
	 41	 1	 10.34	 2.44	 0	 0	 34	 1	 0	 69	 1	 1.1	 0.9;
	 42	 1	 32.13	 7.53	 0	 0	 34	 1	 0	 69	 1	 1.1	 0.9;
	 43	 1	 4.74	 1.11	 0	 0	 34	 1	 0	 69	 1	 1.1	 0.9;
	 44	 1	 3.47	 0.82	 0	 0	 34	 1	 0	 69	 1	 1.1	 0.9;
	 45	 1	 0	 0	 0	 0	 34	 1	 0	 230	 1	 1.1	 0.9;
	 46	 1	 4.34	 1.01	 0	 0	 34	 1	 0	 69	 1	 1.1	 0.9;
	 47	 1	 8.22	 1.92	 0	 0	 34	 1	 0	 69	 1	 1.1	 0.9;
	 48	 1	 7.2	 1.68	 0	 0	 34	 1	 0	 69	 1	 1.1	 0.9;
	 49	 1	 2	 0.47	 0	 0	 34	 1	 0	 69	 1	 1.1	 0.9;
	 50	 1	 12.88	 3	 0	 0	 34	 1	 0	 69	 1	 1.1	 0.9;
	 51	 1	 5.13	 1.19	 0	 0	 34	 1	 0	 69	 1	 1.1	 0.9;
	 52	 1	 6.62	 1.54	 0	 0	 34	 1	 0	 69	 1	 1.1	 0.9;
	 53	 1	 12.05	 2.8	 0	 0	 34	 1	 0	 69	 1	 1.1	 0.9;
	 54	 1	 3.67	 0.85	 0	 0	 34	 1	 0	 69	 1	 1.1	 0.9;
	 55	 1	 6.39	 0	 0	 0	 34	 1	 0	 69	 1	 1.1	 0.9;
	 56	 1	 8.82	 0	 0	 0	 34	 1	 0	 69	 1	 1.1	 0.9;
	 57	 1	 6.65	 0	 0	 0	 34	 1	 0	 69	 1	 1.1	 0.9;
	 58	 1	 7.73	 0	 0	 0	 34	 1	 0	 69	 1	 1.1	 0.9;
	 59	 1	 5.49	 1.27	 0	 0	 34	 1	 0	 69	 1	 1.1	 0.9;
	 60	 1	 12.23	 0	 0	 0	 34	 1	 0	 69	 1	 1.1	 0.9;
	 61	 1	 0	 0	 0	 0	 34	 1	 0	 138	 1	 1.1	 0.9;
	 62	 1	 0	 0	 0	 0	 34	 1	 0	 138	 1	 1.1	 0.9;
	 63	 1	 7.33	 1.7	 0	 0	 34	 1	 0	 138	 1	 1.1	 0.9;
	 64	 1	 5.52	 0	 0	 0	 34	 1	 0	 69	 1	 1.1	 0.9;
	 65	 1	 3.58	 0.82	 0	 0	 34	 1	 0	 69	 1	 1.1	 0.9;
	 66	 1	 0	 0	 0	 0	 34	 1	 0	 345	 1	 1.1	 0.9;
	 67	 1	 6.75	 1.57	 0	 0	 34	 1	 0	 69	 1	 1.1	 0.9;
	 68	 1	 4.7	 0	 0	 0	 34	 1	 0	 69	 1	 1.1	 0.9;
	 69	 1	 17.69	 0	 0	 0	 34	 1	 0	 69	 1	 1.1	 0.9;
	 70	 1	 9.56	 2.22	 0	 0	 34	 1	 0	 138	 1	 1.1	 0.9;
	 71	 1	 18.1	 0	 0	 0	 34	 1	 0	 69	 1	 1.1	 0.9;
	 72	 1	 3.67	 0.85	 0	 0	 34	 1	 0	 69	 1	 1.1	 0.9;
	 73	 1	 0	 0	 0	 0	 34	 1	 0	 138	 1	 1.1	 0.9;
	 74	 1	 6.01	 1.39	 0	 0	 34	 1	 0	 138	 1	 1.1	 0.9;
	 75	 1	 3.83	 0.89	 0	 0	 34	 1	 0	 138	 1	 1.1	 0.9;
	 76	 1	 6	 0	 0	 0	 34	 1	 0	 69	 1	 1.1	 0.9;
	 77	 1	 4.1	 0.95	 0	 0	 34	 1	 0	 69	 1	 1.1	 0.9;
	 78	 1	 11.41	 0	 0	 0	 34	 1	 0	 69	 1	 1.1	 0.9;
	 79	 1	 0	 0	 0	 0	 34	 1	 0	 138	 1	 1.1	 0.9;
	 80	 1	 12.72	 2.85	 0	 0	 34	 1	 0	 69	 1	 1.1	 0.9;
	 81	 1	 0	 0	 0	 0	 34	 1	 0	 138	 1	 1.1	 0.9;
	 82	 1	 5.23	 1.19	 0	 0	 34	 1	 0	 69	 1	 1.1	 0.9;
	 83	 1	 9.17	 2.11	 0	 0	 34	 1	 0	 138	 1	 1.1	 0.9;
	 84	 1	 9.49	 2.18	 0	 0	 34	 1	 0	 138	 1	 1.1	 0.9;
	 85	 1	 0	 0	 0	 0	 34	 1	 0	 138	 1	 1.1	 0.9;
	 86	 1	 5.78	 1.31	 0	 0	 34	 1	 0	 69	 1	 1.1	 0.9;
	 87	 1	 13.8	 0	 0	 0	 34	 1	 0	 69	 1	 1.1	 0.9;
	 88	 1	 7.76	 0	 0	 0	 34	 1	 0	 69	 1	 1.1	 0.9;
	 89	 1	 8.31	 0	 0	 0	 34	 1	 0	 69	 1	 1.1	 0.9;
	 90	 1	 3.45	 0.79	 0	 0	 34	 1	 0	 69	 1	 1.1	 0.9;
	 91	 1	 12.33	 2.85	 0	 0	 34	 1	 0	 138	 1	 1.1	 0.9;
	 92	 1	 0	 0	 0	 0	 34	 1	 0	 138	 1	 1.1	 0.9;
	 93	 1	 0	 0	 0	 0	 34	 1	 0	 138	 1	 1.1	 0.9;
	 94	 1	 13.77	 3.21	 0	 0	 34	 1	 0	 138	 1	 1.1	 0.9;
	 95	 1	 47.28	 11.19	 0	 0	 34	 1	 0	 138	 1	 1.1	 0.9;
...